version 2
run BrakingNoGui-0-20200515-19:08:21-5761
attr configname BrakingNoGui
attr datetime 20200515-19:08:21
attr experiment BrakingNoGui
attr inifile omnetpp.ini
attr iterationvars "$nCars=8, $platoonSize=8, $nLanes=1, $ploegH=0.5, $controller=0, $sController=\"ACC\", $headway=0.3, $leaderHeadway=1.2, $leaderSpeed=100, $beaconInterval=0.1, $priority=4, $packetSize=200, $0=2, $1=0.3"
attr iterationvarsf nCars=8,platoonSize=8,nLanes=1,ploegH=0.5,controller=0,sController=ACC,headway=0.3,leaderHeadway=1.2,leaderSpeed=100,beaconInterval=0.1,priority=4,packetSize=200,2,0.3-
attr measurement "$nCars=8, $platoonSize=8, $nLanes=1, $ploegH=0.5, $controller=0, $sController=\"ACC\", $headway=0.3, $leaderHeadway=1.2, $leaderSpeed=100, $beaconInterval=0.1, $priority=4, $packetSize=200, $0=2, $1=0.3"
attr network Highway
attr processid 5761
attr repetition 0
attr replication #0
attr resultdir results
attr runnumber 0
attr seedset 0
itervar beaconInterval 0.1
itervar controller 0
itervar headway 0.3
itervar leaderHeadway 1.2
itervar leaderSpeed 100
itervar nCars 8
itervar nLanes 1
itervar packetSize 200
itervar platoonSize 8
itervar ploegH 0.5
itervar priority 4
itervar sController "\"ACC\""
param *.manager.command "\"sumo\""
param *.manager.ignoreGuiCommands true
param *.manager.command "\"sumo-gui\""
param *.node[*].scenario_type "\"BrakingScenario\""
param *.node[*].scenario.leaderOscillationFrequency "0.2 Hz"
param *.node[*].scenario.brakingDeceleration "8 mpsps"
param *.node[*].scenario.startBraking "5 s"
param *.playgroundSizeX 65000m
param *.playgroundSizeY 25000m
param *.playgroundSizeZ 50m
param *.annotations.draw false
param *.obstacles.debug false
param *.world.useTorus false
param *.world.use2D false
param *.manager.updateInterval 0.01s
param *.manager.host "\"localhost\""
param *.manager.moduleType "\"org.car2x.plexe.PlatoonCar\""
param *.manager.moduleName "\"node\""
param *.manager.moduleDisplayString "\"\""
param *.manager.autoShutdown true
param *.manager.margin 25
param *.connectionManager.sendDirect true
param *.connectionManager.maxInterfDist 2600m
param *.connectionManager.drawMaxIntfDist false
param *.**.nic.mac1609_4.useServiceChannel false
param *.**.nic.mac1609_4.txPower 100mW
param *.**.nic.mac1609_4.bitrate 6Mbps
param *.**.nic.mac1609_4.useAcks true
param *.**.nic.mac1609_4.ackErrorRate 0.0
param *.**.nic.mac1609_4.frameErrorRate 0.0
param *.**.nic.phy80211p.minPowerLevel -94dBm
param *.**.nic.phy80211p.maxTXPower 100mW
param *.**.nic.phy80211p.useNoiseFloor true
param *.**.nic.phy80211p.noiseFloor -95dBm
param *.**.nic.phy80211p.decider "xmldoc(\"config.xml\")"
param *.**.nic.phy80211p.analogueModels "xmldoc(\"config.xml\")"
param *.**.nic.phy80211p.usePropagationDelay true
param *.node[*].mobility.x 0
param *.node[*].mobility.y 0
param *.node[*].mobility.z 1.895
param **.seed 0
param *.manager.configFile "\"./sumocfg/freeway.sumo.cfg\""
param *.manager.launchConfig "xmldoc(\"./sumocfg/freeway.launchd.xml\")"
param **.numberOfCars 8
param **.numberOfCarsPerPlatoon 8
param **.numberOfLanes 1
param *.node[*].helper_type "\"PositionHelper\""
param *.node[*].scenario.caccC1 0.5
param *.node[*].scenario.caccXi 1
param *.node[*].scenario.caccOmegaN "0.2 Hz"
param *.node[*].scenario.caccSpacing "5 m"
param *.node[*].scenario.engineTau "0.5 s"
param *.node[*].scenario.ploegH 0.5s
param *.node[*].scenario.ploegKp 0.2
param *.node[*].scenario.ploegKd 0.7
param *.node[*].scenario.useRealisticEngine false
param *.node[*].scenario.useControllerAcceleration true
param *.node[*].scenario.nLanes 1
param **.numericController 0
param *.node[*].scenario.controller "\"ACC\""
param **.headway 0.3s
param *.node[*].scenario.accHeadway 0.3s
param *.node[*].scenario.leaderHeadway 1.2s
param *.node[*].scenario.leaderSpeed 100kmph
param *.node[*].appl_type "\"SimplePlatooningApp\""
param *.node[*].protocol_type "\"SimplePlatooningBeaconing\""
param *.node[*].prot.beaconingInterval 0.1s
param *.node[*].prot.priority 4
param *.node[*].prot.packetSize 200
param *.node[*].unicast.packetLossRate 0
param **.traffic_type "\"PlatoonsTrafficManager\""
param **.traffic.platoonInsertTime "1 s"
param **.traffic.platoonInsertSpeed 100kmph
param **.traffic.nCars 8
param **.traffic.platoonSize 8
param **.traffic.nLanes 1
param **.traffic.platooningVType "\"vtypeauto\""
param **.traffic.platoonInsertDistance 2m
param **.traffic.platoonInsertHeadway 0.3s
param **.traffic.platoonLeaderHeadway 1.2s

vector 0 Highway.node[0].appl distance ETV
vector 1 Highway.node[0].appl relativeSpeed ETV
vector 2 Highway.node[0].appl nodeId ETV
vector 3 Highway.node[0].appl acceleration ETV
vector 4 Highway.node[0].appl controllerAcceleration ETV
vector 5 Highway.node[0].appl speed ETV
vector 6 Highway.node[0].appl posx ETV
vector 7 Highway.node[0].appl posy ETV
vector 8 Highway.node[1].appl distance ETV
vector 9 Highway.node[1].appl relativeSpeed ETV
vector 10 Highway.node[1].appl nodeId ETV
vector 11 Highway.node[1].appl acceleration ETV
vector 12 Highway.node[1].appl controllerAcceleration ETV
vector 13 Highway.node[1].appl speed ETV
vector 14 Highway.node[1].appl posx ETV
vector 15 Highway.node[1].appl posy ETV
vector 16 Highway.node[2].appl distance ETV
vector 17 Highway.node[2].appl relativeSpeed ETV
vector 18 Highway.node[2].appl nodeId ETV
vector 19 Highway.node[2].appl acceleration ETV
vector 20 Highway.node[2].appl controllerAcceleration ETV
vector 21 Highway.node[2].appl speed ETV
vector 22 Highway.node[2].appl posx ETV
vector 23 Highway.node[2].appl posy ETV
vector 24 Highway.node[3].appl distance ETV
vector 25 Highway.node[3].appl relativeSpeed ETV
vector 26 Highway.node[3].appl nodeId ETV
vector 27 Highway.node[3].appl acceleration ETV
vector 28 Highway.node[3].appl controllerAcceleration ETV
vector 29 Highway.node[3].appl speed ETV
vector 30 Highway.node[3].appl posx ETV
vector 31 Highway.node[3].appl posy ETV
vector 32 Highway.node[4].appl distance ETV
vector 33 Highway.node[4].appl relativeSpeed ETV
vector 34 Highway.node[4].appl nodeId ETV
vector 35 Highway.node[4].appl acceleration ETV
vector 36 Highway.node[4].appl controllerAcceleration ETV
vector 37 Highway.node[4].appl speed ETV
vector 38 Highway.node[4].appl posx ETV
vector 39 Highway.node[4].appl posy ETV
vector 40 Highway.node[5].appl distance ETV
vector 41 Highway.node[5].appl relativeSpeed ETV
vector 42 Highway.node[5].appl nodeId ETV
vector 43 Highway.node[5].appl acceleration ETV
vector 44 Highway.node[5].appl controllerAcceleration ETV
vector 45 Highway.node[5].appl speed ETV
vector 46 Highway.node[5].appl posx ETV
vector 47 Highway.node[5].appl posy ETV
vector 48 Highway.node[6].appl distance ETV
vector 49 Highway.node[6].appl relativeSpeed ETV
vector 50 Highway.node[6].appl nodeId ETV
vector 51 Highway.node[6].appl acceleration ETV
vector 52 Highway.node[6].appl controllerAcceleration ETV
vector 53 Highway.node[6].appl speed ETV
vector 54 Highway.node[6].appl posx ETV
vector 55 Highway.node[6].appl posy ETV
vector 56 Highway.node[7].appl distance ETV
vector 57 Highway.node[7].appl relativeSpeed ETV
vector 58 Highway.node[7].appl nodeId ETV
vector 59 Highway.node[7].appl acceleration ETV
vector 60 Highway.node[7].appl controllerAcceleration ETV
vector 61 Highway.node[7].appl speed ETV
vector 62 Highway.node[7].appl posx ETV
vector 63 Highway.node[7].appl posy ETV
vector 64 Highway.node[3].prot frontDelay ETV
vector 65 Highway.node[3].prot frontDelayId ETV
vector 66 Highway.node[2].prot frontDelay ETV
vector 67 Highway.node[2].prot frontDelayId ETV
vector 68 Highway.node[7].prot frontDelay ETV
vector 69 Highway.node[7].prot frontDelayId ETV
vector 70 Highway.node[1].prot leaderDelay ETV
vector 71 Highway.node[1].prot leaderDelayId ETV
vector 72 Highway.node[1].prot frontDelay ETV
vector 73 Highway.node[1].prot frontDelayId ETV
vector 74 Highway.node[2].prot leaderDelay ETV
vector 75 Highway.node[2].prot leaderDelayId ETV
vector 76 Highway.node[3].prot leaderDelay ETV
vector 77 Highway.node[3].prot leaderDelayId ETV
vector 78 Highway.node[4].prot leaderDelay ETV
vector 79 Highway.node[4].prot leaderDelayId ETV
vector 80 Highway.node[5].prot leaderDelay ETV
vector 81 Highway.node[5].prot leaderDelayId ETV
vector 82 Highway.node[6].prot leaderDelay ETV
vector 83 Highway.node[6].prot leaderDelayId ETV
vector 84 Highway.node[7].prot leaderDelay ETV
vector 85 Highway.node[7].prot leaderDelayId ETV
vector 86 Highway.node[5].prot frontDelay ETV
vector 87 Highway.node[5].prot frontDelayId ETV
vector 88 Highway.node[4].prot frontDelay ETV
vector 89 Highway.node[4].prot frontDelayId ETV
vector 90 Highway.node[6].prot frontDelay ETV
vector 91 Highway.node[6].prot frontDelayId ETV
vector 92 Highway.node[0].prot nodeId ETV
vector 93 Highway.node[0].prot busyTime ETV
vector 94 Highway.node[0].prot collisions ETV
vector 95 Highway.node[1].prot nodeId ETV
vector 96 Highway.node[1].prot busyTime ETV
vector 97 Highway.node[1].prot collisions ETV
vector 98 Highway.node[2].prot nodeId ETV
vector 99 Highway.node[2].prot busyTime ETV
vector 100 Highway.node[2].prot collisions ETV
vector 101 Highway.node[3].prot nodeId ETV
vector 102 Highway.node[3].prot busyTime ETV
vector 103 Highway.node[3].prot collisions ETV
vector 104 Highway.node[4].prot nodeId ETV
vector 105 Highway.node[4].prot busyTime ETV
vector 106 Highway.node[4].prot collisions ETV
vector 107 Highway.node[5].prot nodeId ETV
vector 108 Highway.node[5].prot busyTime ETV
vector 109 Highway.node[5].prot collisions ETV
vector 110 Highway.node[6].prot nodeId ETV
vector 111 Highway.node[6].prot busyTime ETV
vector 112 Highway.node[6].prot collisions ETV
vector 113 Highway.node[7].prot nodeId ETV
vector 114 Highway.node[7].prot busyTime ETV
vector 115 Highway.node[7].prot collisions ETV
4	113	1.11	-0.00218518
4	659	1.21	-0.00213419
4	1205	1.31	-0.00205408
4	1751	1.41	-0.00195152
4	2297	1.51	-0.00183238
4	2843	1.61	-0.00170178
4	3389	1.71	-0.00156412
4	3935	1.81	-0.00142314
4	4481	1.91	-0.00128196
4	5035	2.01	-0.00114315
4	5581	2.11	-0.00100877
4	6127	2.21	-0.000880447
4	6673	2.31	-0.000759381
4	7219	2.41	-0.000646445
4	7765	2.51	-0.000542204
4	8311	2.61	-0.000446965
4	8857	2.71	-0.000360819
4	9403	2.81	-0.000283678
4	9949	2.91	-0.000215307
4	10503	3.01	-0.000155357
4	11049	3.11	-0.000103391
4	11595	3.21	-5.89069e-05
4	12141	3.31	-2.13575e-05
4	12687	3.41	9.82919e-06
4	13233	3.51	3.52368e-05
4	13779	3.61	5.54479e-05
4	14325	3.71	7.10335e-05
4	14871	3.81	8.25451e-05
4	15417	3.91	9.05081e-05
4	15971	4.01	9.54172e-05
4	16517	4.11	9.7733e-05
4	17063	4.21	9.78798e-05
4	17609	4.31	9.62447e-05
4	18155	4.41	9.31771e-05
4	18701	4.51	8.89894e-05
4	19247	4.61	8.39579e-05
4	19793	4.71	7.83245e-05
4	20339	4.81	7.22983e-05
4	20885	4.91	6.6058e-05
4	21440	5.01	-8
4	21986	5.11	-8
4	22532	5.21	-8
4	23078	5.31	-8
4	23624	5.41	-8
4	24170	5.51	-8
4	24716	5.61	-8
4	25262	5.71	-8
4	25808	5.81	-8
4	26354	5.91	-8
4	26908	6.01	-8
4	27454	6.11	-8
4	28000	6.21	-8
4	28546	6.31	-8
4	29092	6.41	-8
4	29638	6.51	-8
4	30184	6.61	-8
4	30730	6.71	-8
4	31276	6.81	-8
4	31822	6.91	-8
4	32376	7.01	-8
4	32922	7.11	-8
4	33468	7.21	-8
4	34014	7.31	-8
4	34560	7.41	-8
4	35106	7.51	-8
4	35652	7.61	-8
4	36198	7.71	-8
4	36744	7.81	-8
4	37290	7.91	-8
4	37844	8.01	-8
4	38390	8.11	-8
4	38936	8.21	-8
4	39482	8.31	-8
4	40028	8.41	-8
4	40574	8.51	-8
4	41120	8.61	-8
4	41666	8.71	-8
4	42212	8.81	-8
4	42758	8.91	-8
4	43312	9.01	0
4	43858	9.11	0
4	44404	9.21	0
4	44950	9.31	0
4	45496	9.41	0
4	46042	9.51	0
4	46588	9.61	0
4	47134	9.71	0
4	47680	9.81	0
4	48226	9.91	0
4	48780	10.01	0
4	49326	10.11	0
4	49872	10.21	0
4	50418	10.31	0
4	50964	10.41	0
4	51510	10.51	0
4	52056	10.61	0
4	52602	10.71	0
4	53148	10.81	0
4	53694	10.91	0
4	54248	11.01	0
4	54794	11.11	0
4	55340	11.21	0
4	55886	11.31	0
4	56432	11.41	0
4	56978	11.51	0
4	57524	11.61	0
4	58070	11.71	0
4	58616	11.81	0
4	59162	11.91	0
4	59716	12.01	0
4	60262	12.11	0
4	60808	12.21	0
4	61354	12.31	0
4	61900	12.41	0
4	62446	12.51	0
4	62992	12.61	0
4	63538	12.71	0
4	64084	12.81	0
4	64630	12.91	0
4	65184	13.01	0
4	65730	13.11	0
4	66276	13.21	0
4	66822	13.31	0
4	67368	13.41	0
4	67914	13.51	0
4	68460	13.61	0
4	69006	13.71	0
4	69552	13.81	0
4	70098	13.91	0
4	70652	14.01	0
4	71198	14.11	0
4	71744	14.21	0
4	72290	14.31	0
4	72836	14.41	0
4	73382	14.51	0
4	73928	14.61	0
4	74474	14.71	0
4	75020	14.81	0
4	75566	14.91	0
4	76120	15.01	0
4	76666	15.11	0
4	77212	15.21	0
4	77758	15.31	0
4	78304	15.41	0
4	78850	15.51	0
4	79396	15.61	0
4	79942	15.71	0
4	80488	15.81	0
4	81034	15.91	0
4	81588	16.01	0
4	82134	16.11	0
4	82680	16.21	0
4	83226	16.31	0
4	83772	16.41	0
4	84318	16.51	0
4	84864	16.61	0
4	85410	16.71	0
4	85956	16.81	0
4	86502	16.91	0
4	87056	17.01	0
4	87602	17.11	0
4	88148	17.21	0
4	88694	17.31	0
4	89240	17.41	0
4	89786	17.51	0
4	90332	17.61	0
4	90878	17.71	0
4	91424	17.81	0
4	91970	17.91	0
4	92524	18.01	0
4	93070	18.11	0
4	93616	18.21	0
4	94162	18.31	0
4	94708	18.41	0
4	95254	18.51	0
4	95800	18.61	0
4	96346	18.71	0
4	96892	18.81	0
4	97438	18.91	0
4	97992	19.01	0
4	98538	19.11	0
4	99084	19.21	0
4	99630	19.31	0
4	100176	19.41	0
4	100722	19.51	0
4	101268	19.61	0
4	101814	19.71	0
4	102360	19.81	0
4	102906	19.91	0
4	103460	20.01	0
4	104006	20.11	0
4	104552	20.21	0
4	105098	20.31	0
4	105644	20.41	0
4	106190	20.51	0
4	106736	20.61	0
4	107282	20.71	0
4	107828	20.81	0
4	108374	20.91	0
4	108928	21.01	0
4	109474	21.11	0
4	110020	21.21	0
4	110566	21.31	0
4	111112	21.41	0
4	111658	21.51	0
4	112204	21.61	0
4	112750	21.71	0
4	113296	21.81	0
4	113842	21.91	0
4	114396	22.01	0
4	114942	22.11	0
4	115488	22.21	0
4	116034	22.31	0
4	116580	22.41	0
4	117126	22.51	0
4	117672	22.61	0
4	118218	22.71	0
4	118764	22.81	0
4	119310	22.91	0
4	119864	23.01	0
4	120410	23.11	0
4	120956	23.21	0
4	121502	23.31	0
4	122048	23.41	0
4	122594	23.51	0
4	123140	23.61	0
4	123686	23.71	0
4	124232	23.81	0
4	124778	23.91	0
4	125332	24.01	0
4	125878	24.11	0
4	126424	24.21	0
4	126970	24.31	0
4	127516	24.41	0
4	128062	24.51	0
4	128608	24.61	0
4	129154	24.71	0
4	129700	24.81	0
4	130246	24.91	0
4	130800	25.01	0
4	131346	25.11	0
4	131892	25.21	0
4	132438	25.31	0
4	132984	25.41	0
4	133530	25.51	0
4	134076	25.61	0
4	134622	25.71	0
4	135168	25.81	0
4	135714	25.91	0
4	136268	26.01	0
4	136814	26.11	0
4	137360	26.21	0
4	137906	26.31	0
4	138452	26.41	0
4	138998	26.51	0
4	139544	26.61	0
4	140090	26.71	0
4	140636	26.81	0
4	141182	26.91	0
4	141736	27.01	0
4	142282	27.11	0
4	142828	27.21	0
4	143374	27.31	0
4	143920	27.41	0
4	144466	27.51	0
4	145012	27.61	0
4	145558	27.71	0
4	146104	27.81	0
4	146650	27.91	0
4	147204	28.01	0
4	147750	28.11	0
4	148296	28.21	0
4	148842	28.31	0
4	149388	28.41	0
4	149934	28.51	0
4	150480	28.61	0
4	151026	28.71	0
4	151572	28.81	0
4	152118	28.91	0
4	152672	29.01	0
4	153218	29.11	0
4	153764	29.21	0
4	154310	29.31	0
4	154856	29.41	0
4	155402	29.51	0
4	155948	29.61	0
4	156494	29.71	0
4	157040	29.81	0
4	157586	29.91	0
4	158140	30.01	0
4	158686	30.11	0
4	159232	30.21	0
4	159778	30.31	0
4	160324	30.41	0
4	160870	30.51	0
4	161416	30.61	0
4	161962	30.71	0
4	162508	30.81	0
4	163054	30.91	0
4	163608	31.01	0
4	164154	31.11	0
4	164700	31.21	0
4	165246	31.31	0
4	165792	31.41	0
4	166338	31.51	0
4	166884	31.61	0
4	167430	31.71	0
4	167976	31.81	0
4	168522	31.91	0
4	169076	32.01	0
4	169622	32.11	0
4	170168	32.21	0
4	170714	32.31	0
4	171260	32.41	0
4	171806	32.51	0
4	172352	32.61	0
4	172898	32.71	0
4	173444	32.81	0
4	173990	32.91	0
4	174544	33.01	0
4	175090	33.11	0
4	175636	33.21	0
4	176182	33.31	0
4	176728	33.41	0
4	177274	33.51	0
4	177820	33.61	0
4	178366	33.71	0
4	178912	33.81	0
4	179458	33.91	0
4	180012	34.01	0
4	180558	34.11	0
4	181104	34.21	0
4	181650	34.31	0
4	182196	34.41	0
4	182742	34.51	0
4	183288	34.61	0
4	183834	34.71	0
4	184380	34.81	0
4	184926	34.91	0
4	185480	35.01	0
4	186026	35.11	0
4	186572	35.21	0
4	187118	35.31	0
4	187664	35.41	0
4	188210	35.51	0
4	188756	35.61	0
4	189302	35.71	0
4	189848	35.81	0
4	190394	35.91	0
4	190948	36.01	0
4	191494	36.11	0
4	192040	36.21	0
4	192586	36.31	0
4	193132	36.41	0
4	193678	36.51	0
4	194224	36.61	0
4	194770	36.71	0
4	195316	36.81	0
4	195862	36.91	0
4	196416	37.01	0
4	196962	37.11	0
4	197508	37.21	0
4	198054	37.31	0
4	198600	37.41	0
4	199146	37.51	0
4	199692	37.61	0
4	200238	37.71	0
4	200784	37.81	0
4	201330	37.91	0
4	201884	38.01	0
4	202430	38.11	0
4	202976	38.21	0
4	203522	38.31	0
4	204068	38.41	0
4	204614	38.51	0
4	205160	38.61	0
4	205706	38.71	0
4	206252	38.81	0
4	206798	38.91	0
4	207352	39.01	0
4	207898	39.11	0
4	208444	39.21	0
4	208990	39.31	0
4	209536	39.41	0
4	210082	39.51	0
4	210628	39.61	0
4	211174	39.71	0
4	211720	39.81	0
4	212266	39.91	0
4	212820	40.01	0
4	213366	40.11	0
4	213912	40.21	0
4	214458	40.31	0
4	215004	40.41	0
4	215550	40.51	0
4	216096	40.61	0
4	216642	40.71	0
4	217188	40.81	0
4	217734	40.91	0
4	218288	41.01	0
4	218834	41.11	0
4	219380	41.21	0
4	219926	41.31	0
4	220472	41.41	0
4	221018	41.51	0
4	221564	41.61	0
4	222110	41.71	0
4	222656	41.81	0
4	223202	41.91	0
4	223756	42.01	0
4	224302	42.11	0
4	224848	42.21	0
4	225394	42.31	0
4	225940	42.41	0
4	226486	42.51	0
4	227032	42.61	0
4	227578	42.71	0
4	228124	42.81	0
4	228670	42.91	0
4	229224	43.01	0
4	229770	43.11	0
4	230316	43.21	0
4	230862	43.31	0
4	231408	43.41	0
4	231954	43.51	0
4	232500	43.61	0
4	233046	43.71	0
4	233592	43.81	0
4	234138	43.91	0
4	234692	44.01	0
4	235238	44.11	0
4	235784	44.21	0
4	236330	44.31	0
4	236876	44.41	0
4	237422	44.51	0
4	237968	44.61	0
4	238514	44.71	0
4	239060	44.81	0
4	239606	44.91	0
4	240160	45.01	0
4	240706	45.11	0
4	241252	45.21	0
4	241798	45.31	0
4	242344	45.41	0
4	242890	45.51	0
4	243436	45.61	0
4	243982	45.71	0
4	244528	45.81	0
4	245074	45.91	0
4	245628	46.01	0
4	246174	46.11	0
4	246720	46.21	0
4	247266	46.31	0
4	247812	46.41	0
4	248358	46.51	0
4	248904	46.61	0
4	249450	46.71	0
4	249996	46.81	0
4	250542	46.91	0
4	251096	47.01	0
4	251642	47.11	0
4	252188	47.21	0
4	252734	47.31	0
4	253280	47.41	0
4	253826	47.51	0
4	254372	47.61	0
4	254918	47.71	0
4	255464	47.81	0
4	256010	47.91	0
4	256561	48.01	0
4	257104	48.11	0
4	257650	48.21	0
4	258196	48.31	0
4	258742	48.41	0
4	259288	48.51	0
4	259834	48.61	0
4	260380	48.71	0
4	260923	48.81	0
4	261469	48.91	0
4	262023	49.01	0
4	262569	49.11	0
4	263115	49.21	0
4	263661	49.31	0
4	264207	49.41	0
4	264753	49.51	0
4	265299	49.61	0
4	265845	49.71	0
4	266391	49.81	0
4	266937	49.91	0
4	267491	50.01	0
4	268037	50.11	0
4	268583	50.21	0
4	269126	50.31	0
4	269672	50.41	0
4	270215	50.51	0
4	270761	50.61	0
4	271307	50.71	0
4	271853	50.81	0
4	272396	50.91	0
4	272950	51.01	0
4	273496	51.11	0
4	274039	51.21	0
4	274582	51.31	0
4	275125	51.41	0
4	275662	51.51	0
4	276205	51.61	0
4	276751	51.71	0
4	277294	51.81	0
4	277840	51.91	0
4	278391	52.01	0
4	278928	52.11	0
4	279465	52.21	0
4	280011	52.31	0
4	280536	52.41	0
4	281073	52.51	0
4	281610	52.61	0
4	282150	52.71	0
4	282684	52.81	0
4	283218	52.91	0
4	283754	53.01	0
4	284288	53.11	0
4	284819	53.21	0
4	285347	53.31	0
4	285872	53.41	0
4	286400	53.51	0
4	286928	53.61	0
4	287453	53.71	0
4	287978	53.81	0
4	288503	53.91	0
4	289027	54.01	0
4	289534	54.11	0
4	290050	54.21	0
4	290563	54.31	0
4	291067	54.41	0
4	291583	54.51	0
4	292096	54.61	0
4	292609	54.71	0
4	293107	54.81	0
4	293605	54.91	0
4	294123	55.01	0
4	294627	55.11	0
4	295116	55.21	0
4	295599	55.31	0
4	296094	55.41	0
4	296580	55.51	0
4	297066	55.61	0
4	297543	55.71	0
4	298023	55.81	0
4	298503	55.91	0
4	298979	56.01	0
4	299453	56.11	0
4	299924	56.21	0
4	300404	56.31	0
4	300878	56.41	0
4	301340	56.51	0
4	301805	56.61	0
4	302267	56.71	0
4	302729	56.81	0
4	303194	56.91	0
4	303667	57.01	0
4	304123	57.11	0
4	304582	57.21	0
4	305038	57.31	0
4	305494	57.41	0
4	305956	57.51	0
4	306415	57.61	0
4	306871	57.71	0
4	307330	57.81	0
4	307789	57.91	0
4	308253	58.01	0
4	308709	58.11	0
4	309165	58.21	0
4	309621	58.31	0
4	310077	58.41	0
4	310533	58.51	0
4	310989	58.61	0
4	311445	58.71	0
4	311901	58.81	0
4	312357	58.91	0
4	312821	59.01	0
4	313277	59.11	0
4	313733	59.21	0
4	314189	59.31	0
4	314645	59.41	0
4	315101	59.51	0
4	315557	59.61	0
4	316013	59.71	0
4	316469	59.81	0
4	316925	59.91	0
3	113	1.11	-0.000358191
3	659	1.21	-0.000681704
3	1205	1.31	-0.00093487
3	1751	1.41	-0.00112579
3	2297	1.51	-0.00126221
3	2843	1.61	-0.00135149
3	3389	1.71	-0.00140049
3	3935	1.81	-0.00141557
3	4481	1.91	-0.00140255
3	5035	2.01	-0.00136671
3	5581	2.11	-0.0013128
3	6127	2.21	-0.00124502
3	6673	2.31	-0.0011671
3	7219	2.41	-0.00108223
3	7765	2.51	-0.000993208
3	8311	2.61	-0.000902362
3	8857	2.71	-0.000811651
3	9403	2.81	-0.000722679
3	9949	2.91	-0.000636729
3	10503	3.01	-0.0005548
3	11049	3.11	-0.000477639
3	11595	3.21	-0.000405773
3	12141	3.31	-0.00033954
3	12687	3.41	-0.000279116
3	13233	3.51	-0.000224541
3	13779	3.61	-0.000175743
3	14325	3.71	-0.00013256
3	14871	3.81	-9.47571e-05
3	15417	3.91	-6.2046e-05
3	15971	4.01	-3.40986e-05
3	16517	4.11	-1.05605e-05
3	17063	4.21	8.93844e-06
3	17609	4.31	2.4774e-05
3	18155	4.41	3.73203e-05
3	18701	4.51	4.69433e-05
3	19247	4.61	5.39956e-05
3	19793	4.71	5.88124e-05
3	20339	4.81	6.1709e-05
3	20885	4.91	6.29785e-05
3	21440	5.01	-0.156801
3	21986	5.11	-1.56585
3	22532	5.21	-2.72175
3	23078	5.31	-3.67
3	23624	5.41	-4.44789
3	24170	5.51	-5.08603
3	24716	5.61	-5.60953
3	25262	5.71	-6.03898
3	25808	5.81	-6.39128
3	26354	5.91	-6.68029
3	26908	6.01	-6.91738
3	27454	6.11	-7.11187
3	28000	6.21	-7.27143
3	28546	6.31	-7.40232
3	29092	6.41	-7.50969
3	29638	6.51	-7.59778
3	30184	6.61	-7.67004
3	30730	6.71	-7.72932
3	31276	6.81	-7.77794
3	31822	6.91	-7.81784
3	32376	7.01	-7.85056
3	32922	7.11	-7.87741
3	33468	7.21	-7.89943
3	34014	7.31	-7.9175
3	34560	7.41	-7.93232
3	35106	7.51	-7.94448
3	35652	7.61	-7.95445
3	36198	7.71	-7.96264
3	36744	7.81	-7.96935
3	37290	7.91	-7.97486
3	37844	8.01	-7.97937
3	38390	8.11	-7.98308
3	38936	8.21	-7.98612
3	39482	8.31	-7.98861
3	40028	8.41	-7.99066
3	40574	8.51	-7.99234
3	41120	8.61	-7.99371
3	41666	8.71	-7.99484
3	42212	8.81	-7.99577
3	42758	8.91	-7.99653
3	43312	9.01	0
3	43858	9.11	0
3	44404	9.21	0
3	44950	9.31	0
3	45496	9.41	0
3	46042	9.51	0
3	46588	9.61	0
3	47134	9.71	0
3	47680	9.81	0
3	48226	9.91	0
3	48780	10.01	0
3	49326	10.11	0
3	49872	10.21	0
3	50418	10.31	0
3	50964	10.41	0
3	51510	10.51	0
3	52056	10.61	0
3	52602	10.71	0
3	53148	10.81	0
3	53694	10.91	0
3	54248	11.01	0
3	54794	11.11	0
3	55340	11.21	0
3	55886	11.31	0
3	56432	11.41	0
3	56978	11.51	0
3	57524	11.61	0
3	58070	11.71	0
3	58616	11.81	0
3	59162	11.91	0
3	59716	12.01	0
3	60262	12.11	0
3	60808	12.21	0
3	61354	12.31	0
3	61900	12.41	0
3	62446	12.51	0
3	62992	12.61	0
3	63538	12.71	0
3	64084	12.81	0
3	64630	12.91	0
3	65184	13.01	0
3	65730	13.11	0
3	66276	13.21	0
3	66822	13.31	0
3	67368	13.41	0
3	67914	13.51	0
3	68460	13.61	0
3	69006	13.71	0
3	69552	13.81	0
3	70098	13.91	0
3	70652	14.01	0
3	71198	14.11	0
3	71744	14.21	0
3	72290	14.31	0
3	72836	14.41	0
3	73382	14.51	0
3	73928	14.61	0
3	74474	14.71	0
3	75020	14.81	0
3	75566	14.91	0
3	76120	15.01	0
3	76666	15.11	0
3	77212	15.21	0
3	77758	15.31	0
3	78304	15.41	0
3	78850	15.51	0
3	79396	15.61	0
3	79942	15.71	0
3	80488	15.81	0
3	81034	15.91	0
3	81588	16.01	0
3	82134	16.11	0
3	82680	16.21	0
3	83226	16.31	0
3	83772	16.41	0
3	84318	16.51	0
3	84864	16.61	0
3	85410	16.71	0
3	85956	16.81	0
3	86502	16.91	0
3	87056	17.01	0
3	87602	17.11	0
3	88148	17.21	0
3	88694	17.31	0
3	89240	17.41	0
3	89786	17.51	0
3	90332	17.61	0
3	90878	17.71	0
3	91424	17.81	0
3	91970	17.91	0
3	92524	18.01	0
3	93070	18.11	0
3	93616	18.21	0
3	94162	18.31	0
3	94708	18.41	0
3	95254	18.51	0
3	95800	18.61	0
3	96346	18.71	0
3	96892	18.81	0
3	97438	18.91	0
3	97992	19.01	0
3	98538	19.11	0
3	99084	19.21	0
3	99630	19.31	0
3	100176	19.41	0
3	100722	19.51	0
3	101268	19.61	0
3	101814	19.71	0
3	102360	19.81	0
3	102906	19.91	0
3	103460	20.01	0
3	104006	20.11	0
3	104552	20.21	0
3	105098	20.31	0
3	105644	20.41	0
3	106190	20.51	0
3	106736	20.61	0
3	107282	20.71	0
3	107828	20.81	0
3	108374	20.91	0
3	108928	21.01	0
3	109474	21.11	0
3	110020	21.21	0
3	110566	21.31	0
3	111112	21.41	0
3	111658	21.51	0
3	112204	21.61	0
3	112750	21.71	0
3	113296	21.81	0
3	113842	21.91	0
3	114396	22.01	0
3	114942	22.11	0
3	115488	22.21	0
3	116034	22.31	0
3	116580	22.41	0
3	117126	22.51	0
3	117672	22.61	0
3	118218	22.71	0
3	118764	22.81	0
3	119310	22.91	0
3	119864	23.01	0
3	120410	23.11	0
3	120956	23.21	0
3	121502	23.31	0
3	122048	23.41	0
3	122594	23.51	0
3	123140	23.61	0
3	123686	23.71	0
3	124232	23.81	0
3	124778	23.91	0
3	125332	24.01	0
3	125878	24.11	0
3	126424	24.21	0
3	126970	24.31	0
3	127516	24.41	0
3	128062	24.51	0
3	128608	24.61	0
3	129154	24.71	0
3	129700	24.81	0
3	130246	24.91	0
3	130800	25.01	0
3	131346	25.11	0
3	131892	25.21	0
3	132438	25.31	0
3	132984	25.41	0
3	133530	25.51	0
3	134076	25.61	0
3	134622	25.71	0
3	135168	25.81	0
3	135714	25.91	0
3	136268	26.01	0
3	136814	26.11	0
3	137360	26.21	0
3	137906	26.31	0
3	138452	26.41	0
3	138998	26.51	0
3	139544	26.61	0
3	140090	26.71	0
3	140636	26.81	0
3	141182	26.91	0
3	141736	27.01	0
3	142282	27.11	0
3	142828	27.21	0
3	143374	27.31	0
3	143920	27.41	0
3	144466	27.51	0
3	145012	27.61	0
3	145558	27.71	0
3	146104	27.81	0
3	146650	27.91	0
3	147204	28.01	0
3	147750	28.11	0
3	148296	28.21	0
3	148842	28.31	0
3	149388	28.41	0
3	149934	28.51	0
3	150480	28.61	0
3	151026	28.71	0
3	151572	28.81	0
3	152118	28.91	0
3	152672	29.01	0
3	153218	29.11	0
3	153764	29.21	0
3	154310	29.31	0
3	154856	29.41	0
3	155402	29.51	0
3	155948	29.61	0
3	156494	29.71	0
3	157040	29.81	0
3	157586	29.91	0
3	158140	30.01	0
3	158686	30.11	0
3	159232	30.21	0
3	159778	30.31	0
3	160324	30.41	0
3	160870	30.51	0
3	161416	30.61	0
3	161962	30.71	0
3	162508	30.81	0
3	163054	30.91	0
3	163608	31.01	0
3	164154	31.11	0
3	164700	31.21	0
3	165246	31.31	0
3	165792	31.41	0
3	166338	31.51	0
3	166884	31.61	0
3	167430	31.71	0
3	167976	31.81	0
3	168522	31.91	0
3	169076	32.01	0
3	169622	32.11	0
3	170168	32.21	0
3	170714	32.31	0
3	171260	32.41	0
3	171806	32.51	0
3	172352	32.61	0
3	172898	32.71	0
3	173444	32.81	0
3	173990	32.91	0
3	174544	33.01	0
3	175090	33.11	0
3	175636	33.21	0
3	176182	33.31	0
3	176728	33.41	0
3	177274	33.51	0
3	177820	33.61	0
3	178366	33.71	0
3	178912	33.81	0
3	179458	33.91	0
3	180012	34.01	0
3	180558	34.11	0
3	181104	34.21	0
3	181650	34.31	0
3	182196	34.41	0
3	182742	34.51	0
3	183288	34.61	0
3	183834	34.71	0
3	184380	34.81	0
3	184926	34.91	0
3	185480	35.01	0
3	186026	35.11	0
3	186572	35.21	0
3	187118	35.31	0
3	187664	35.41	0
3	188210	35.51	0
3	188756	35.61	0
3	189302	35.71	0
3	189848	35.81	0
3	190394	35.91	0
3	190948	36.01	0
3	191494	36.11	0
3	192040	36.21	0
3	192586	36.31	0
3	193132	36.41	0
3	193678	36.51	0
3	194224	36.61	0
3	194770	36.71	0
3	195316	36.81	0
3	195862	36.91	0
3	196416	37.01	0
3	196962	37.11	0
3	197508	37.21	0
3	198054	37.31	0
3	198600	37.41	0
3	199146	37.51	0
3	199692	37.61	0
3	200238	37.71	0
3	200784	37.81	0
3	201330	37.91	0
3	201884	38.01	0
3	202430	38.11	0
3	202976	38.21	0
3	203522	38.31	0
3	204068	38.41	0
3	204614	38.51	0
3	205160	38.61	0
3	205706	38.71	0
3	206252	38.81	0
3	206798	38.91	0
3	207352	39.01	0
3	207898	39.11	0
3	208444	39.21	0
3	208990	39.31	0
3	209536	39.41	0
3	210082	39.51	0
3	210628	39.61	0
3	211174	39.71	0
3	211720	39.81	0
3	212266	39.91	0
3	212820	40.01	0
3	213366	40.11	0
3	213912	40.21	0
3	214458	40.31	0
3	215004	40.41	0
3	215550	40.51	0
3	216096	40.61	0
3	216642	40.71	0
3	217188	40.81	0
3	217734	40.91	0
3	218288	41.01	0
3	218834	41.11	0
3	219380	41.21	0
3	219926	41.31	0
3	220472	41.41	0
3	221018	41.51	0
3	221564	41.61	0
3	222110	41.71	0
3	222656	41.81	0
3	223202	41.91	0
3	223756	42.01	0
3	224302	42.11	0
3	224848	42.21	0
3	225394	42.31	0
3	225940	42.41	0
3	226486	42.51	0
3	227032	42.61	0
3	227578	42.71	0
3	228124	42.81	0
3	228670	42.91	0
3	229224	43.01	0
3	229770	43.11	0
3	230316	43.21	0
3	230862	43.31	0
3	231408	43.41	0
3	231954	43.51	0
3	232500	43.61	0
3	233046	43.71	0
3	233592	43.81	0
3	234138	43.91	0
3	234692	44.01	0
3	235238	44.11	0
3	235784	44.21	0
3	236330	44.31	0
3	236876	44.41	0
3	237422	44.51	0
3	237968	44.61	0
3	238514	44.71	0
3	239060	44.81	0
3	239606	44.91	0
3	240160	45.01	0
3	240706	45.11	0
3	241252	45.21	0
3	241798	45.31	0
3	242344	45.41	0
3	242890	45.51	0
3	243436	45.61	0
3	243982	45.71	0
3	244528	45.81	0
3	245074	45.91	0
3	245628	46.01	0
3	246174	46.11	0
3	246720	46.21	0
3	247266	46.31	0
3	247812	46.41	0
3	248358	46.51	0
3	248904	46.61	0
3	249450	46.71	0
3	249996	46.81	0
3	250542	46.91	0
3	251096	47.01	0
3	251642	47.11	0
3	252188	47.21	0
3	252734	47.31	0
3	253280	47.41	0
3	253826	47.51	0
3	254372	47.61	0
3	254918	47.71	0
3	255464	47.81	0
3	256010	47.91	0
3	256561	48.01	0
3	257104	48.11	0
3	257650	48.21	0
3	258196	48.31	0
3	258742	48.41	0
3	259288	48.51	0
3	259834	48.61	0
3	260380	48.71	0
3	260923	48.81	0
3	261469	48.91	0
3	262023	49.01	0
3	262569	49.11	0
3	263115	49.21	0
3	263661	49.31	0
3	264207	49.41	0
3	264753	49.51	0
3	265299	49.61	0
3	265845	49.71	0
3	266391	49.81	0
3	266937	49.91	0
3	267491	50.01	0
3	268037	50.11	0
3	268583	50.21	0
3	269126	50.31	0
3	269672	50.41	0
3	270215	50.51	0
3	270761	50.61	0
3	271307	50.71	0
3	271853	50.81	0
3	272396	50.91	0
3	272950	51.01	0
3	273496	51.11	0
3	274039	51.21	0
3	274582	51.31	0
3	275125	51.41	0
3	275662	51.51	0
3	276205	51.61	0
3	276751	51.71	0
3	277294	51.81	0
3	277840	51.91	0
3	278391	52.01	0
3	278928	52.11	0
3	279465	52.21	0
3	280011	52.31	0
3	280536	52.41	0
3	281073	52.51	0
3	281610	52.61	0
3	282150	52.71	0
3	282684	52.81	0
3	283218	52.91	0
3	283754	53.01	0
3	284288	53.11	0
3	284819	53.21	0
3	285347	53.31	0
3	285872	53.41	0
3	286400	53.51	0
3	286928	53.61	0
3	287453	53.71	0
3	287978	53.81	0
3	288503	53.91	0
3	289027	54.01	0
3	289534	54.11	0
3	290050	54.21	0
3	290563	54.31	0
3	291067	54.41	0
3	291583	54.51	0
3	292096	54.61	0
3	292609	54.71	0
3	293107	54.81	0
3	293605	54.91	0
3	294123	55.01	0
3	294627	55.11	0
3	295116	55.21	0
3	295599	55.31	0
3	296094	55.41	0
3	296580	55.51	0
3	297066	55.61	0
3	297543	55.71	0
3	298023	55.81	0
3	298503	55.91	0
3	298979	56.01	0
3	299453	56.11	0
3	299924	56.21	0
3	300404	56.31	0
3	300878	56.41	0
3	301340	56.51	0
3	301805	56.61	0
3	302267	56.71	0
3	302729	56.81	0
3	303194	56.91	0
3	303667	57.01	0
3	304123	57.11	0
3	304582	57.21	0
3	305038	57.31	0
3	305494	57.41	0
3	305956	57.51	0
3	306415	57.61	0
3	306871	57.71	0
3	307330	57.81	0
3	307789	57.91	0
3	308253	58.01	0
3	308709	58.11	0
3	309165	58.21	0
3	309621	58.31	0
3	310077	58.41	0
3	310533	58.51	0
3	310989	58.61	0
3	311445	58.71	0
3	311901	58.81	0
3	312357	58.91	0
3	312821	59.01	0
3	313277	59.11	0
3	313733	59.21	0
3	314189	59.31	0
3	314645	59.41	0
3	315101	59.51	0
3	315557	59.61	0
3	316013	59.71	0
3	316469	59.81	0
3	316925	59.91	0
7	113	1.11	242.45
7	659	1.21	242.45
7	1205	1.31	242.45
7	1751	1.41	242.45
7	2297	1.51	242.45
7	2843	1.61	242.45
7	3389	1.71	242.45
7	3935	1.81	242.45
7	4481	1.91	242.45
7	5035	2.01	242.45
7	5581	2.11	242.45
7	6127	2.21	242.45
7	6673	2.31	242.45
7	7219	2.41	242.45
7	7765	2.51	242.45
7	8311	2.61	242.45
7	8857	2.71	242.45
7	9403	2.81	242.45
7	9949	2.91	242.45
7	10503	3.01	242.45
7	11049	3.11	242.45
7	11595	3.21	242.45
7	12141	3.31	242.45
7	12687	3.41	242.45
7	13233	3.51	242.45
7	13779	3.61	242.45
7	14325	3.71	242.45
7	14871	3.81	242.45
7	15417	3.91	242.45
7	15971	4.01	242.45
7	16517	4.11	242.45
7	17063	4.21	242.45
7	17609	4.31	242.45
7	18155	4.41	242.45
7	18701	4.51	242.45
7	19247	4.61	242.45
7	19793	4.71	242.45
7	20339	4.81	242.45
7	20885	4.91	242.45
7	21440	5.01	242.45
7	21986	5.11	242.45
7	22532	5.21	242.45
7	23078	5.31	242.45
7	23624	5.41	242.45
7	24170	5.51	242.45
7	24716	5.61	242.45
7	25262	5.71	242.45
7	25808	5.81	242.45
7	26354	5.91	242.45
7	26908	6.01	242.45
7	27454	6.11	242.45
7	28000	6.21	242.45
7	28546	6.31	242.45
7	29092	6.41	242.45
7	29638	6.51	242.45
7	30184	6.61	242.45
7	30730	6.71	242.45
7	31276	6.81	242.45
7	31822	6.91	242.45
7	32376	7.01	242.45
7	32922	7.11	242.45
7	33468	7.21	242.45
7	34014	7.31	242.45
7	34560	7.41	242.45
7	35106	7.51	242.45
7	35652	7.61	242.45
7	36198	7.71	242.45
7	36744	7.81	242.45
7	37290	7.91	242.45
7	37844	8.01	242.45
7	38390	8.11	242.45
7	38936	8.21	242.45
7	39482	8.31	242.45
7	40028	8.41	242.45
7	40574	8.51	242.45
7	41120	8.61	242.45
7	41666	8.71	242.45
7	42212	8.81	242.45
7	42758	8.91	242.45
7	43312	9.01	242.45
7	43858	9.11	242.45
7	44404	9.21	242.45
7	44950	9.31	242.45
7	45496	9.41	242.45
7	46042	9.51	242.45
7	46588	9.61	242.45
7	47134	9.71	242.45
7	47680	9.81	242.45
7	48226	9.91	242.45
7	48780	10.01	242.45
7	49326	10.11	242.45
7	49872	10.21	242.45
7	50418	10.31	242.45
7	50964	10.41	242.45
7	51510	10.51	242.45
7	52056	10.61	242.45
7	52602	10.71	242.45
7	53148	10.81	242.45
7	53694	10.91	242.45
7	54248	11.01	242.45
7	54794	11.11	242.45
7	55340	11.21	242.45
7	55886	11.31	242.45
7	56432	11.41	242.45
7	56978	11.51	242.45
7	57524	11.61	242.45
7	58070	11.71	242.45
7	58616	11.81	242.45
7	59162	11.91	242.45
7	59716	12.01	242.45
7	60262	12.11	242.45
7	60808	12.21	242.45
7	61354	12.31	242.45
7	61900	12.41	242.45
7	62446	12.51	242.45
7	62992	12.61	242.45
7	63538	12.71	242.45
7	64084	12.81	242.45
7	64630	12.91	242.45
7	65184	13.01	242.45
7	65730	13.11	242.45
7	66276	13.21	242.45
7	66822	13.31	242.45
7	67368	13.41	242.45
7	67914	13.51	242.45
7	68460	13.61	242.45
7	69006	13.71	242.45
7	69552	13.81	242.45
7	70098	13.91	242.45
7	70652	14.01	242.45
7	71198	14.11	242.45
7	71744	14.21	242.45
7	72290	14.31	242.45
7	72836	14.41	242.45
7	73382	14.51	242.45
7	73928	14.61	242.45
7	74474	14.71	242.45
7	75020	14.81	242.45
7	75566	14.91	242.45
7	76120	15.01	242.45
7	76666	15.11	242.45
7	77212	15.21	242.45
7	77758	15.31	242.45
7	78304	15.41	242.45
7	78850	15.51	242.45
7	79396	15.61	242.45
7	79942	15.71	242.45
7	80488	15.81	242.45
7	81034	15.91	242.45
7	81588	16.01	242.45
7	82134	16.11	242.45
7	82680	16.21	242.45
7	83226	16.31	242.45
7	83772	16.41	242.45
7	84318	16.51	242.45
7	84864	16.61	242.45
7	85410	16.71	242.45
7	85956	16.81	242.45
7	86502	16.91	242.45
7	87056	17.01	242.45
7	87602	17.11	242.45
7	88148	17.21	242.45
7	88694	17.31	242.45
7	89240	17.41	242.45
7	89786	17.51	242.45
7	90332	17.61	242.45
7	90878	17.71	242.45
7	91424	17.81	242.45
7	91970	17.91	242.45
7	92524	18.01	242.45
7	93070	18.11	242.45
7	93616	18.21	242.45
7	94162	18.31	242.45
7	94708	18.41	242.45
7	95254	18.51	242.45
7	95800	18.61	242.45
7	96346	18.71	242.45
7	96892	18.81	242.45
7	97438	18.91	242.45
7	97992	19.01	242.45
7	98538	19.11	242.45
7	99084	19.21	242.45
7	99630	19.31	242.45
7	100176	19.41	242.45
7	100722	19.51	242.45
7	101268	19.61	242.45
7	101814	19.71	242.45
7	102360	19.81	242.45
7	102906	19.91	242.45
7	103460	20.01	242.45
7	104006	20.11	242.45
7	104552	20.21	242.45
7	105098	20.31	242.45
7	105644	20.41	242.45
7	106190	20.51	242.45
7	106736	20.61	242.45
7	107282	20.71	242.45
7	107828	20.81	242.45
7	108374	20.91	242.45
7	108928	21.01	242.45
7	109474	21.11	242.45
7	110020	21.21	242.45
7	110566	21.31	242.45
7	111112	21.41	242.45
7	111658	21.51	242.45
7	112204	21.61	242.45
7	112750	21.71	242.45
7	113296	21.81	242.45
7	113842	21.91	242.45
7	114396	22.01	242.45
7	114942	22.11	242.45
7	115488	22.21	242.45
7	116034	22.31	242.45
7	116580	22.41	242.45
7	117126	22.51	242.45
7	117672	22.61	242.45
7	118218	22.71	242.45
7	118764	22.81	242.45
7	119310	22.91	242.45
7	119864	23.01	242.45
7	120410	23.11	242.45
7	120956	23.21	242.45
7	121502	23.31	242.45
7	122048	23.41	242.45
7	122594	23.51	242.45
7	123140	23.61	242.45
7	123686	23.71	242.45
7	124232	23.81	242.45
7	124778	23.91	242.45
7	125332	24.01	242.45
7	125878	24.11	242.45
7	126424	24.21	242.45
7	126970	24.31	242.45
7	127516	24.41	242.45
7	128062	24.51	242.45
7	128608	24.61	242.45
7	129154	24.71	242.45
7	129700	24.81	242.45
7	130246	24.91	242.45
7	130800	25.01	242.45
7	131346	25.11	242.45
7	131892	25.21	242.45
7	132438	25.31	242.45
7	132984	25.41	242.45
7	133530	25.51	242.45
7	134076	25.61	242.45
7	134622	25.71	242.45
7	135168	25.81	242.45
7	135714	25.91	242.45
7	136268	26.01	242.45
7	136814	26.11	242.45
7	137360	26.21	242.45
7	137906	26.31	242.45
7	138452	26.41	242.45
7	138998	26.51	242.45
7	139544	26.61	242.45
7	140090	26.71	242.45
7	140636	26.81	242.45
7	141182	26.91	242.45
7	141736	27.01	242.45
7	142282	27.11	242.45
7	142828	27.21	242.45
7	143374	27.31	242.45
7	143920	27.41	242.45
7	144466	27.51	242.45
7	145012	27.61	242.45
7	145558	27.71	242.45
7	146104	27.81	242.45
7	146650	27.91	242.45
7	147204	28.01	242.45
7	147750	28.11	242.45
7	148296	28.21	242.45
7	148842	28.31	242.45
7	149388	28.41	242.45
7	149934	28.51	242.45
7	150480	28.61	242.45
7	151026	28.71	242.45
7	151572	28.81	242.45
7	152118	28.91	242.45
7	152672	29.01	242.45
7	153218	29.11	242.45
7	153764	29.21	242.45
7	154310	29.31	242.45
7	154856	29.41	242.45
7	155402	29.51	242.45
7	155948	29.61	242.45
7	156494	29.71	242.45
7	157040	29.81	242.45
7	157586	29.91	242.45
7	158140	30.01	242.45
7	158686	30.11	242.45
7	159232	30.21	242.45
7	159778	30.31	242.45
7	160324	30.41	242.45
7	160870	30.51	242.45
7	161416	30.61	242.45
7	161962	30.71	242.45
7	162508	30.81	242.45
7	163054	30.91	242.45
7	163608	31.01	242.45
7	164154	31.11	242.45
7	164700	31.21	242.45
7	165246	31.31	242.45
7	165792	31.41	242.45
7	166338	31.51	242.45
7	166884	31.61	242.45
7	167430	31.71	242.45
7	167976	31.81	242.45
7	168522	31.91	242.45
7	169076	32.01	242.45
7	169622	32.11	242.45
7	170168	32.21	242.45
7	170714	32.31	242.45
7	171260	32.41	242.45
7	171806	32.51	242.45
7	172352	32.61	242.45
7	172898	32.71	242.45
7	173444	32.81	242.45
7	173990	32.91	242.45
7	174544	33.01	242.45
7	175090	33.11	242.45
7	175636	33.21	242.45
7	176182	33.31	242.45
7	176728	33.41	242.45
7	177274	33.51	242.45
7	177820	33.61	242.45
7	178366	33.71	242.45
7	178912	33.81	242.45
7	179458	33.91	242.45
7	180012	34.01	242.45
7	180558	34.11	242.45
7	181104	34.21	242.45
7	181650	34.31	242.45
7	182196	34.41	242.45
7	182742	34.51	242.45
7	183288	34.61	242.45
7	183834	34.71	242.45
7	184380	34.81	242.45
7	184926	34.91	242.45
7	185480	35.01	242.45
7	186026	35.11	242.45
7	186572	35.21	242.45
7	187118	35.31	242.45
7	187664	35.41	242.45
7	188210	35.51	242.45
7	188756	35.61	242.45
7	189302	35.71	242.45
7	189848	35.81	242.45
7	190394	35.91	242.45
7	190948	36.01	242.45
7	191494	36.11	242.45
7	192040	36.21	242.45
7	192586	36.31	242.45
7	193132	36.41	242.45
7	193678	36.51	242.45
7	194224	36.61	242.45
7	194770	36.71	242.45
7	195316	36.81	242.45
7	195862	36.91	242.45
7	196416	37.01	242.45
7	196962	37.11	242.45
7	197508	37.21	242.45
7	198054	37.31	242.45
7	198600	37.41	242.45
7	199146	37.51	242.45
7	199692	37.61	242.45
7	200238	37.71	242.45
7	200784	37.81	242.45
7	201330	37.91	242.45
7	201884	38.01	242.45
7	202430	38.11	242.45
7	202976	38.21	242.45
7	203522	38.31	242.45
7	204068	38.41	242.45
7	204614	38.51	242.45
7	205160	38.61	242.45
7	205706	38.71	242.45
7	206252	38.81	242.45
7	206798	38.91	242.45
7	207352	39.01	242.45
7	207898	39.11	242.45
7	208444	39.21	242.45
7	208990	39.31	242.45
7	209536	39.41	242.45
7	210082	39.51	242.45
7	210628	39.61	242.45
7	211174	39.71	242.45
7	211720	39.81	242.45
7	212266	39.91	242.45
7	212820	40.01	242.45
7	213366	40.11	242.45
7	213912	40.21	242.45
7	214458	40.31	242.45
7	215004	40.41	242.45
7	215550	40.51	242.45
7	216096	40.61	242.45
7	216642	40.71	242.45
7	217188	40.81	242.45
7	217734	40.91	242.45
7	218288	41.01	242.45
7	218834	41.11	242.45
7	219380	41.21	242.45
7	219926	41.31	242.45
7	220472	41.41	242.45
7	221018	41.51	242.45
7	221564	41.61	242.45
7	222110	41.71	242.45
7	222656	41.81	242.45
7	223202	41.91	242.45
7	223756	42.01	242.45
7	224302	42.11	242.45
7	224848	42.21	242.45
7	225394	42.31	242.45
7	225940	42.41	242.45
7	226486	42.51	242.45
7	227032	42.61	242.45
7	227578	42.71	242.45
7	228124	42.81	242.45
7	228670	42.91	242.45
7	229224	43.01	242.45
7	229770	43.11	242.45
7	230316	43.21	242.45
7	230862	43.31	242.45
7	231408	43.41	242.45
7	231954	43.51	242.45
7	232500	43.61	242.45
7	233046	43.71	242.45
7	233592	43.81	242.45
7	234138	43.91	242.45
7	234692	44.01	242.45
7	235238	44.11	242.45
7	235784	44.21	242.45
7	236330	44.31	242.45
7	236876	44.41	242.45
7	237422	44.51	242.45
7	237968	44.61	242.45
7	238514	44.71	242.45
7	239060	44.81	242.45
7	239606	44.91	242.45
7	240160	45.01	242.45
7	240706	45.11	242.45
7	241252	45.21	242.45
7	241798	45.31	242.45
7	242344	45.41	242.45
7	242890	45.51	242.45
7	243436	45.61	242.45
7	243982	45.71	242.45
7	244528	45.81	242.45
7	245074	45.91	242.45
7	245628	46.01	242.45
7	246174	46.11	242.45
7	246720	46.21	242.45
7	247266	46.31	242.45
7	247812	46.41	242.45
7	248358	46.51	242.45
7	248904	46.61	242.45
7	249450	46.71	242.45
7	249996	46.81	242.45
7	250542	46.91	242.45
7	251096	47.01	242.45
7	251642	47.11	242.45
7	252188	47.21	242.45
7	252734	47.31	242.45
7	253280	47.41	242.45
7	253826	47.51	242.45
7	254372	47.61	242.45
7	254918	47.71	242.45
7	255464	47.81	242.45
7	256010	47.91	242.45
7	256561	48.01	242.45
7	257104	48.11	242.45
7	257650	48.21	242.45
7	258196	48.31	242.45
7	258742	48.41	242.45
7	259288	48.51	242.45
7	259834	48.61	242.45
7	260380	48.71	242.45
7	260923	48.81	242.45
7	261469	48.91	242.45
7	262023	49.01	242.45
7	262569	49.11	242.45
7	263115	49.21	242.45
7	263661	49.31	242.45
7	264207	49.41	242.45
7	264753	49.51	242.45
7	265299	49.61	242.45
7	265845	49.71	242.45
7	266391	49.81	242.45
7	266937	49.91	242.45
7	267491	50.01	242.45
7	268037	50.11	242.45
7	268583	50.21	242.45
7	269126	50.31	242.45
7	269672	50.41	242.45
7	270215	50.51	242.45
7	270761	50.61	242.45
7	271307	50.71	242.45
7	271853	50.81	242.45
7	272396	50.91	242.45
7	272950	51.01	242.45
7	273496	51.11	242.45
7	274039	51.21	242.45
7	274582	51.31	242.45
7	275125	51.41	242.45
7	275662	51.51	242.45
7	276205	51.61	242.45
7	276751	51.71	242.45
7	277294	51.81	242.45
7	277840	51.91	242.45
7	278391	52.01	242.45
7	278928	52.11	242.45
7	279465	52.21	242.45
7	280011	52.31	242.45
7	280536	52.41	242.45
7	281073	52.51	242.45
7	281610	52.61	242.45
7	282150	52.71	242.45
7	282684	52.81	242.45
7	283218	52.91	242.45
7	283754	53.01	242.45
7	284288	53.11	242.45
7	284819	53.21	242.45
7	285347	53.31	242.45
7	285872	53.41	242.45
7	286400	53.51	242.45
7	286928	53.61	242.45
7	287453	53.71	242.45
7	287978	53.81	242.45
7	288503	53.91	242.45
7	289027	54.01	242.45
7	289534	54.11	242.45
7	290050	54.21	242.45
7	290563	54.31	242.45
7	291067	54.41	242.45
7	291583	54.51	242.45
7	292096	54.61	242.45
7	292609	54.71	242.45
7	293107	54.81	242.45
7	293605	54.91	242.45
7	294123	55.01	242.45
7	294627	55.11	242.45
7	295116	55.21	242.45
7	295599	55.31	242.45
7	296094	55.41	242.45
7	296580	55.51	242.45
7	297066	55.61	242.45
7	297543	55.71	242.45
7	298023	55.81	242.45
7	298503	55.91	242.45
7	298979	56.01	242.45
7	299453	56.11	242.45
7	299924	56.21	242.45
7	300404	56.31	242.45
7	300878	56.41	242.45
7	301340	56.51	242.45
7	301805	56.61	242.45
7	302267	56.71	242.45
7	302729	56.81	242.45
7	303194	56.91	242.45
7	303667	57.01	242.45
7	304123	57.11	242.45
7	304582	57.21	242.45
7	305038	57.31	242.45
7	305494	57.41	242.45
7	305956	57.51	242.45
7	306415	57.61	242.45
7	306871	57.71	242.45
7	307330	57.81	242.45
7	307789	57.91	242.45
7	308253	58.01	242.45
7	308709	58.11	242.45
7	309165	58.21	242.45
7	309621	58.31	242.45
7	310077	58.41	242.45
7	310533	58.51	242.45
7	310989	58.61	242.45
7	311445	58.71	242.45
7	311901	58.81	242.45
7	312357	58.91	242.45
7	312821	59.01	242.45
7	313277	59.11	242.45
7	313733	59.21	242.45
7	314189	59.31	242.45
7	314645	59.41	242.45
7	315101	59.51	242.45
7	315557	59.61	242.45
7	316013	59.71	242.45
7	316469	59.81	242.45
7	316925	59.91	242.45
6	113	1.11	111.27
6	659	1.21	114.048
6	1205	1.31	116.826
6	1751	1.41	119.604
6	2297	1.51	122.382
6	2843	1.61	125.16
6	3389	1.71	127.938
6	3935	1.81	130.716
6	4481	1.91	133.494
6	5035	2.01	136.272
6	5581	2.11	139.05
6	6127	2.21	141.828
6	6673	2.31	144.605
6	7219	2.41	147.383
6	7765	2.51	150.161
6	8311	2.61	152.939
6	8857	2.71	155.717
6	9403	2.81	158.495
6	9949	2.91	161.272
6	10503	3.01	164.05
6	11049	3.11	166.828
6	11595	3.21	169.606
6	12141	3.31	172.384
6	12687	3.41	175.161
6	13233	3.51	177.939
6	13779	3.61	180.717
6	14325	3.71	183.495
6	14871	3.81	186.272
6	15417	3.91	189.05
6	15971	4.01	191.828
6	16517	4.11	194.606
6	17063	4.21	197.383
6	17609	4.31	200.161
6	18155	4.41	202.939
6	18701	4.51	205.717
6	19247	4.61	208.495
6	19793	4.71	211.272
6	20339	4.81	214.05
6	20885	4.91	216.828
6	21440	5.01	219.606
6	21986	5.11	222.38
6	22532	5.21	225.138
6	23078	5.31	227.868
6	23624	5.41	230.561
6	24170	5.51	233.21
6	24716	5.61	235.807
6	25262	5.71	238.349
6	25808	5.81	240.83
6	26354	5.91	243.246
6	26908	6.01	245.596
6	27454	6.11	247.877
6	28000	6.21	250.087
6	28546	6.31	252.223
6	29092	6.41	254.286
6	29638	6.51	256.273
6	30184	6.61	258.185
6	30730	6.71	260.02
6	31276	6.81	261.777
6	31822	6.91	263.457
6	32376	7.01	265.058
6	32922	7.11	266.581
6	33468	7.21	268.026
6	34014	7.31	269.391
6	34560	7.41	270.677
6	35106	7.51	271.884
6	35652	7.61	273.011
6	36198	7.71	274.059
6	36744	7.81	275.027
6	37290	7.91	275.915
6	37844	8.01	276.724
6	38390	8.11	277.453
6	38936	8.21	278.102
6	39482	8.31	278.671
6	40028	8.41	279.16
6	40574	8.51	279.569
6	41120	8.61	279.899
6	41666	8.71	280.148
6	42212	8.81	280.318
6	42758	8.91	280.407
6	43312	9.01	280.423
6	43858	9.11	280.423
6	44404	9.21	280.423
6	44950	9.31	280.423
6	45496	9.41	280.423
6	46042	9.51	280.423
6	46588	9.61	280.423
6	47134	9.71	280.423
6	47680	9.81	280.423
6	48226	9.91	280.423
6	48780	10.01	280.423
6	49326	10.11	280.423
6	49872	10.21	280.423
6	50418	10.31	280.423
6	50964	10.41	280.423
6	51510	10.51	280.423
6	52056	10.61	280.423
6	52602	10.71	280.423
6	53148	10.81	280.423
6	53694	10.91	280.423
6	54248	11.01	280.423
6	54794	11.11	280.423
6	55340	11.21	280.423
6	55886	11.31	280.423
6	56432	11.41	280.423
6	56978	11.51	280.423
6	57524	11.61	280.423
6	58070	11.71	280.423
6	58616	11.81	280.423
6	59162	11.91	280.423
6	59716	12.01	280.423
6	60262	12.11	280.423
6	60808	12.21	280.423
6	61354	12.31	280.423
6	61900	12.41	280.423
6	62446	12.51	280.423
6	62992	12.61	280.423
6	63538	12.71	280.423
6	64084	12.81	280.423
6	64630	12.91	280.423
6	65184	13.01	280.423
6	65730	13.11	280.423
6	66276	13.21	280.423
6	66822	13.31	280.423
6	67368	13.41	280.423
6	67914	13.51	280.423
6	68460	13.61	280.423
6	69006	13.71	280.423
6	69552	13.81	280.423
6	70098	13.91	280.423
6	70652	14.01	280.423
6	71198	14.11	280.423
6	71744	14.21	280.423
6	72290	14.31	280.423
6	72836	14.41	280.423
6	73382	14.51	280.423
6	73928	14.61	280.423
6	74474	14.71	280.423
6	75020	14.81	280.423
6	75566	14.91	280.423
6	76120	15.01	280.423
6	76666	15.11	280.423
6	77212	15.21	280.423
6	77758	15.31	280.423
6	78304	15.41	280.423
6	78850	15.51	280.423
6	79396	15.61	280.423
6	79942	15.71	280.423
6	80488	15.81	280.423
6	81034	15.91	280.423
6	81588	16.01	280.423
6	82134	16.11	280.423
6	82680	16.21	280.423
6	83226	16.31	280.423
6	83772	16.41	280.423
6	84318	16.51	280.423
6	84864	16.61	280.423
6	85410	16.71	280.423
6	85956	16.81	280.423
6	86502	16.91	280.423
6	87056	17.01	280.423
6	87602	17.11	280.423
6	88148	17.21	280.423
6	88694	17.31	280.423
6	89240	17.41	280.423
6	89786	17.51	280.423
6	90332	17.61	280.423
6	90878	17.71	280.423
6	91424	17.81	280.423
6	91970	17.91	280.423
6	92524	18.01	280.423
6	93070	18.11	280.423
6	93616	18.21	280.423
6	94162	18.31	280.423
6	94708	18.41	280.423
6	95254	18.51	280.423
6	95800	18.61	280.423
6	96346	18.71	280.423
6	96892	18.81	280.423
6	97438	18.91	280.423
6	97992	19.01	280.423
6	98538	19.11	280.423
6	99084	19.21	280.423
6	99630	19.31	280.423
6	100176	19.41	280.423
6	100722	19.51	280.423
6	101268	19.61	280.423
6	101814	19.71	280.423
6	102360	19.81	280.423
6	102906	19.91	280.423
6	103460	20.01	280.423
6	104006	20.11	280.423
6	104552	20.21	280.423
6	105098	20.31	280.423
6	105644	20.41	280.423
6	106190	20.51	280.423
6	106736	20.61	280.423
6	107282	20.71	280.423
6	107828	20.81	280.423
6	108374	20.91	280.423
6	108928	21.01	280.423
6	109474	21.11	280.423
6	110020	21.21	280.423
6	110566	21.31	280.423
6	111112	21.41	280.423
6	111658	21.51	280.423
6	112204	21.61	280.423
6	112750	21.71	280.423
6	113296	21.81	280.423
6	113842	21.91	280.423
6	114396	22.01	280.423
6	114942	22.11	280.423
6	115488	22.21	280.423
6	116034	22.31	280.423
6	116580	22.41	280.423
6	117126	22.51	280.423
6	117672	22.61	280.423
6	118218	22.71	280.423
6	118764	22.81	280.423
6	119310	22.91	280.423
6	119864	23.01	280.423
6	120410	23.11	280.423
6	120956	23.21	280.423
6	121502	23.31	280.423
6	122048	23.41	280.423
6	122594	23.51	280.423
6	123140	23.61	280.423
6	123686	23.71	280.423
6	124232	23.81	280.423
6	124778	23.91	280.423
6	125332	24.01	280.423
6	125878	24.11	280.423
6	126424	24.21	280.423
6	126970	24.31	280.423
6	127516	24.41	280.423
6	128062	24.51	280.423
6	128608	24.61	280.423
6	129154	24.71	280.423
6	129700	24.81	280.423
6	130246	24.91	280.423
6	130800	25.01	280.423
6	131346	25.11	280.423
6	131892	25.21	280.423
6	132438	25.31	280.423
6	132984	25.41	280.423
6	133530	25.51	280.423
6	134076	25.61	280.423
6	134622	25.71	280.423
6	135168	25.81	280.423
6	135714	25.91	280.423
6	136268	26.01	280.423
6	136814	26.11	280.423
6	137360	26.21	280.423
6	137906	26.31	280.423
6	138452	26.41	280.423
6	138998	26.51	280.423
6	139544	26.61	280.423
6	140090	26.71	280.423
6	140636	26.81	280.423
6	141182	26.91	280.423
6	141736	27.01	280.423
6	142282	27.11	280.423
6	142828	27.21	280.423
6	143374	27.31	280.423
6	143920	27.41	280.423
6	144466	27.51	280.423
6	145012	27.61	280.423
6	145558	27.71	280.423
6	146104	27.81	280.423
6	146650	27.91	280.423
6	147204	28.01	280.423
6	147750	28.11	280.423
6	148296	28.21	280.423
6	148842	28.31	280.423
6	149388	28.41	280.423
6	149934	28.51	280.423
6	150480	28.61	280.423
6	151026	28.71	280.423
6	151572	28.81	280.423
6	152118	28.91	280.423
6	152672	29.01	280.423
6	153218	29.11	280.423
6	153764	29.21	280.423
6	154310	29.31	280.423
6	154856	29.41	280.423
6	155402	29.51	280.423
6	155948	29.61	280.423
6	156494	29.71	280.423
6	157040	29.81	280.423
6	157586	29.91	280.423
6	158140	30.01	280.423
6	158686	30.11	280.423
6	159232	30.21	280.423
6	159778	30.31	280.423
6	160324	30.41	280.423
6	160870	30.51	280.423
6	161416	30.61	280.423
6	161962	30.71	280.423
6	162508	30.81	280.423
6	163054	30.91	280.423
6	163608	31.01	280.423
6	164154	31.11	280.423
6	164700	31.21	280.423
6	165246	31.31	280.423
6	165792	31.41	280.423
6	166338	31.51	280.423
6	166884	31.61	280.423
6	167430	31.71	280.423
6	167976	31.81	280.423
6	168522	31.91	280.423
6	169076	32.01	280.423
6	169622	32.11	280.423
6	170168	32.21	280.423
6	170714	32.31	280.423
6	171260	32.41	280.423
6	171806	32.51	280.423
6	172352	32.61	280.423
6	172898	32.71	280.423
6	173444	32.81	280.423
6	173990	32.91	280.423
6	174544	33.01	280.423
6	175090	33.11	280.423
6	175636	33.21	280.423
6	176182	33.31	280.423
6	176728	33.41	280.423
6	177274	33.51	280.423
6	177820	33.61	280.423
6	178366	33.71	280.423
6	178912	33.81	280.423
6	179458	33.91	280.423
6	180012	34.01	280.423
6	180558	34.11	280.423
6	181104	34.21	280.423
6	181650	34.31	280.423
6	182196	34.41	280.423
6	182742	34.51	280.423
6	183288	34.61	280.423
6	183834	34.71	280.423
6	184380	34.81	280.423
6	184926	34.91	280.423
6	185480	35.01	280.423
6	186026	35.11	280.423
6	186572	35.21	280.423
6	187118	35.31	280.423
6	187664	35.41	280.423
6	188210	35.51	280.423
6	188756	35.61	280.423
6	189302	35.71	280.423
6	189848	35.81	280.423
6	190394	35.91	280.423
6	190948	36.01	280.423
6	191494	36.11	280.423
6	192040	36.21	280.423
6	192586	36.31	280.423
6	193132	36.41	280.423
6	193678	36.51	280.423
6	194224	36.61	280.423
6	194770	36.71	280.423
6	195316	36.81	280.423
6	195862	36.91	280.423
6	196416	37.01	280.423
6	196962	37.11	280.423
6	197508	37.21	280.423
6	198054	37.31	280.423
6	198600	37.41	280.423
6	199146	37.51	280.423
6	199692	37.61	280.423
6	200238	37.71	280.423
6	200784	37.81	280.423
6	201330	37.91	280.423
6	201884	38.01	280.423
6	202430	38.11	280.423
6	202976	38.21	280.423
6	203522	38.31	280.423
6	204068	38.41	280.423
6	204614	38.51	280.423
6	205160	38.61	280.423
6	205706	38.71	280.423
6	206252	38.81	280.423
6	206798	38.91	280.423
6	207352	39.01	280.423
6	207898	39.11	280.423
6	208444	39.21	280.423
6	208990	39.31	280.423
6	209536	39.41	280.423
6	210082	39.51	280.423
6	210628	39.61	280.423
6	211174	39.71	280.423
6	211720	39.81	280.423
6	212266	39.91	280.423
6	212820	40.01	280.423
6	213366	40.11	280.423
6	213912	40.21	280.423
6	214458	40.31	280.423
6	215004	40.41	280.423
6	215550	40.51	280.423
6	216096	40.61	280.423
6	216642	40.71	280.423
6	217188	40.81	280.423
6	217734	40.91	280.423
6	218288	41.01	280.423
6	218834	41.11	280.423
6	219380	41.21	280.423
6	219926	41.31	280.423
6	220472	41.41	280.423
6	221018	41.51	280.423
6	221564	41.61	280.423
6	222110	41.71	280.423
6	222656	41.81	280.423
6	223202	41.91	280.423
6	223756	42.01	280.423
6	224302	42.11	280.423
6	224848	42.21	280.423
6	225394	42.31	280.423
6	225940	42.41	280.423
6	226486	42.51	280.423
6	227032	42.61	280.423
6	227578	42.71	280.423
6	228124	42.81	280.423
6	228670	42.91	280.423
6	229224	43.01	280.423
6	229770	43.11	280.423
6	230316	43.21	280.423
6	230862	43.31	280.423
6	231408	43.41	280.423
6	231954	43.51	280.423
6	232500	43.61	280.423
6	233046	43.71	280.423
6	233592	43.81	280.423
6	234138	43.91	280.423
6	234692	44.01	280.423
6	235238	44.11	280.423
6	235784	44.21	280.423
6	236330	44.31	280.423
6	236876	44.41	280.423
6	237422	44.51	280.423
6	237968	44.61	280.423
6	238514	44.71	280.423
6	239060	44.81	280.423
6	239606	44.91	280.423
6	240160	45.01	280.423
6	240706	45.11	280.423
6	241252	45.21	280.423
6	241798	45.31	280.423
6	242344	45.41	280.423
6	242890	45.51	280.423
6	243436	45.61	280.423
6	243982	45.71	280.423
6	244528	45.81	280.423
6	245074	45.91	280.423
6	245628	46.01	280.423
6	246174	46.11	280.423
6	246720	46.21	280.423
6	247266	46.31	280.423
6	247812	46.41	280.423
6	248358	46.51	280.423
6	248904	46.61	280.423
6	249450	46.71	280.423
6	249996	46.81	280.423
6	250542	46.91	280.423
6	251096	47.01	280.423
6	251642	47.11	280.423
6	252188	47.21	280.423
6	252734	47.31	280.423
6	253280	47.41	280.423
6	253826	47.51	280.423
6	254372	47.61	280.423
6	254918	47.71	280.423
6	255464	47.81	280.423
6	256010	47.91	280.423
6	256561	48.01	280.423
6	257104	48.11	280.423
6	257650	48.21	280.423
6	258196	48.31	280.423
6	258742	48.41	280.423
6	259288	48.51	280.423
6	259834	48.61	280.423
6	260380	48.71	280.423
6	260923	48.81	280.423
6	261469	48.91	280.423
6	262023	49.01	280.423
6	262569	49.11	280.423
6	263115	49.21	280.423
6	263661	49.31	280.423
6	264207	49.41	280.423
6	264753	49.51	280.423
6	265299	49.61	280.423
6	265845	49.71	280.423
6	266391	49.81	280.423
6	266937	49.91	280.423
6	267491	50.01	280.423
6	268037	50.11	280.423
6	268583	50.21	280.423
6	269126	50.31	280.423
6	269672	50.41	280.423
6	270215	50.51	280.423
6	270761	50.61	280.423
6	271307	50.71	280.423
6	271853	50.81	280.423
6	272396	50.91	280.423
6	272950	51.01	280.423
6	273496	51.11	280.423
6	274039	51.21	280.423
6	274582	51.31	280.423
6	275125	51.41	280.423
6	275662	51.51	280.423
6	276205	51.61	280.423
6	276751	51.71	280.423
6	277294	51.81	280.423
6	277840	51.91	280.423
6	278391	52.01	280.423
6	278928	52.11	280.423
6	279465	52.21	280.423
6	280011	52.31	280.423
6	280536	52.41	280.423
6	281073	52.51	280.423
6	281610	52.61	280.423
6	282150	52.71	280.423
6	282684	52.81	280.423
6	283218	52.91	280.423
6	283754	53.01	280.423
6	284288	53.11	280.423
6	284819	53.21	280.423
6	285347	53.31	280.423
6	285872	53.41	280.423
6	286400	53.51	280.423
6	286928	53.61	280.423
6	287453	53.71	280.423
6	287978	53.81	280.423
6	288503	53.91	280.423
6	289027	54.01	280.423
6	289534	54.11	280.423
6	290050	54.21	280.423
6	290563	54.31	280.423
6	291067	54.41	280.423
6	291583	54.51	280.423
6	292096	54.61	280.423
6	292609	54.71	280.423
6	293107	54.81	280.423
6	293605	54.91	280.423
6	294123	55.01	280.423
6	294627	55.11	280.423
6	295116	55.21	280.423
6	295599	55.31	280.423
6	296094	55.41	280.423
6	296580	55.51	280.423
6	297066	55.61	280.423
6	297543	55.71	280.423
6	298023	55.81	280.423
6	298503	55.91	280.423
6	298979	56.01	280.423
6	299453	56.11	280.423
6	299924	56.21	280.423
6	300404	56.31	280.423
6	300878	56.41	280.423
6	301340	56.51	280.423
6	301805	56.61	280.423
6	302267	56.71	280.423
6	302729	56.81	280.423
6	303194	56.91	280.423
6	303667	57.01	280.423
6	304123	57.11	280.423
6	304582	57.21	280.423
6	305038	57.31	280.423
6	305494	57.41	280.423
6	305956	57.51	280.423
6	306415	57.61	280.423
6	306871	57.71	280.423
6	307330	57.81	280.423
6	307789	57.91	280.423
6	308253	58.01	280.423
6	308709	58.11	280.423
6	309165	58.21	280.423
6	309621	58.31	280.423
6	310077	58.41	280.423
6	310533	58.51	280.423
6	310989	58.61	280.423
6	311445	58.71	280.423
6	311901	58.81	280.423
6	312357	58.91	280.423
6	312821	59.01	280.423
6	313277	59.11	280.423
6	313733	59.21	280.423
6	314189	59.31	280.423
6	314645	59.41	280.423
6	315101	59.51	280.423
6	315557	59.61	280.423
6	316013	59.71	280.423
6	316469	59.81	280.423
6	316925	59.91	280.423
5	113	1.11	27.78
5	659	1.21	27.7799
5	1205	1.31	27.7798
5	1751	1.41	27.7797
5	2297	1.51	27.7796
5	2843	1.61	27.7795
5	3389	1.71	27.7794
5	3935	1.81	27.7792
5	4481	1.91	27.7791
5	5035	2.01	27.7789
5	5581	2.11	27.7788
5	6127	2.21	27.7787
5	6673	2.31	27.7785
5	7219	2.41	27.7784
5	7765	2.51	27.7783
5	8311	2.61	27.7782
5	8857	2.71	27.7782
5	9403	2.81	27.7781
5	9949	2.91	27.778
5	10503	3.01	27.7779
5	11049	3.11	27.7779
5	11595	3.21	27.7779
5	12141	3.31	27.7778
5	12687	3.41	27.7778
5	13233	3.51	27.7778
5	13779	3.61	27.7777
5	14325	3.71	27.7777
5	14871	3.81	27.7777
5	15417	3.91	27.7777
5	15971	4.01	27.7777
5	16517	4.11	27.7777
5	17063	4.21	27.7777
5	17609	4.31	27.7777
5	18155	4.41	27.7777
5	18701	4.51	27.7777
5	19247	4.61	27.7777
5	19793	4.71	27.7777
5	20339	4.81	27.7777
5	20885	4.91	27.7777
5	21440	5.01	27.7762
5	21986	5.11	27.6807
5	22532	5.21	27.4586
5	23078	5.31	27.1328
5	23624	5.41	26.7217
5	24170	5.51	26.2408
5	24716	5.61	25.7025
5	25262	5.71	25.1173
5	25808	5.81	24.4934
5	26354	5.91	23.8379
5	26908	6.01	23.1565
5	27454	6.11	22.4537
5	28000	6.21	21.7335
5	28546	6.31	20.9989
5	29092	6.41	20.2526
5	29638	6.51	19.4967
5	30184	6.61	18.7328
5	30730	6.71	17.9624
5	31276	6.81	17.1867
5	31822	6.91	16.4067
5	32376	7.01	15.6231
5	32922	7.11	14.8365
5	33468	7.21	14.0475
5	34014	7.31	13.2565
5	34560	7.41	12.4639
5	35106	7.51	11.67
5	35652	7.61	10.875
5	36198	7.71	10.0791
5	36744	7.81	9.28245
5	37290	7.91	8.4852
5	37844	8.01	7.68746
5	38390	8.11	6.88931
5	38936	8.21	6.09083
5	39482	8.31	5.29208
5	40028	8.41	4.4931
5	40574	8.51	3.69394
5	41120	8.61	2.89463
5	41666	8.71	2.09519
5	42212	8.81	1.29566
5	42758	8.91	0.496036
5	43312	9.01	0
5	43858	9.11	0
5	44404	9.21	0
5	44950	9.31	0
5	45496	9.41	0
5	46042	9.51	0
5	46588	9.61	0
5	47134	9.71	0
5	47680	9.81	0
5	48226	9.91	0
5	48780	10.01	0
5	49326	10.11	0
5	49872	10.21	0
5	50418	10.31	0
5	50964	10.41	0
5	51510	10.51	0
5	52056	10.61	0
5	52602	10.71	0
5	53148	10.81	0
5	53694	10.91	0
5	54248	11.01	0
5	54794	11.11	0
5	55340	11.21	0
5	55886	11.31	0
5	56432	11.41	0
5	56978	11.51	0
5	57524	11.61	0
5	58070	11.71	0
5	58616	11.81	0
5	59162	11.91	0
5	59716	12.01	0
5	60262	12.11	0
5	60808	12.21	0
5	61354	12.31	0
5	61900	12.41	0
5	62446	12.51	0
5	62992	12.61	0
5	63538	12.71	0
5	64084	12.81	0
5	64630	12.91	0
5	65184	13.01	0
5	65730	13.11	0
5	66276	13.21	0
5	66822	13.31	0
5	67368	13.41	0
5	67914	13.51	0
5	68460	13.61	0
5	69006	13.71	0
5	69552	13.81	0
5	70098	13.91	0
5	70652	14.01	0
5	71198	14.11	0
5	71744	14.21	0
5	72290	14.31	0
5	72836	14.41	0
5	73382	14.51	0
5	73928	14.61	0
5	74474	14.71	0
5	75020	14.81	0
5	75566	14.91	0
5	76120	15.01	0
5	76666	15.11	0
5	77212	15.21	0
5	77758	15.31	0
5	78304	15.41	0
5	78850	15.51	0
5	79396	15.61	0
5	79942	15.71	0
5	80488	15.81	0
5	81034	15.91	0
5	81588	16.01	0
5	82134	16.11	0
5	82680	16.21	0
5	83226	16.31	0
5	83772	16.41	0
5	84318	16.51	0
5	84864	16.61	0
5	85410	16.71	0
5	85956	16.81	0
5	86502	16.91	0
5	87056	17.01	0
5	87602	17.11	0
5	88148	17.21	0
5	88694	17.31	0
5	89240	17.41	0
5	89786	17.51	0
5	90332	17.61	0
5	90878	17.71	0
5	91424	17.81	0
5	91970	17.91	0
5	92524	18.01	0
5	93070	18.11	0
5	93616	18.21	0
5	94162	18.31	0
5	94708	18.41	0
5	95254	18.51	0
5	95800	18.61	0
5	96346	18.71	0
5	96892	18.81	0
5	97438	18.91	0
5	97992	19.01	0
5	98538	19.11	0
5	99084	19.21	0
5	99630	19.31	0
5	100176	19.41	0
5	100722	19.51	0
5	101268	19.61	0
5	101814	19.71	0
5	102360	19.81	0
5	102906	19.91	0
5	103460	20.01	0
5	104006	20.11	0
5	104552	20.21	0
5	105098	20.31	0
5	105644	20.41	0
5	106190	20.51	0
5	106736	20.61	0
5	107282	20.71	0
5	107828	20.81	0
5	108374	20.91	0
5	108928	21.01	0
5	109474	21.11	0
5	110020	21.21	0
5	110566	21.31	0
5	111112	21.41	0
5	111658	21.51	0
5	112204	21.61	0
5	112750	21.71	0
5	113296	21.81	0
5	113842	21.91	0
5	114396	22.01	0
5	114942	22.11	0
5	115488	22.21	0
5	116034	22.31	0
5	116580	22.41	0
5	117126	22.51	0
5	117672	22.61	0
5	118218	22.71	0
5	118764	22.81	0
5	119310	22.91	0
5	119864	23.01	0
5	120410	23.11	0
5	120956	23.21	0
5	121502	23.31	0
5	122048	23.41	0
5	122594	23.51	0
5	123140	23.61	0
5	123686	23.71	0
5	124232	23.81	0
5	124778	23.91	0
5	125332	24.01	0
5	125878	24.11	0
5	126424	24.21	0
5	126970	24.31	0
5	127516	24.41	0
5	128062	24.51	0
5	128608	24.61	0
5	129154	24.71	0
5	129700	24.81	0
5	130246	24.91	0
5	130800	25.01	0
5	131346	25.11	0
5	131892	25.21	0
5	132438	25.31	0
5	132984	25.41	0
5	133530	25.51	0
5	134076	25.61	0
5	134622	25.71	0
5	135168	25.81	0
5	135714	25.91	0
5	136268	26.01	0
5	136814	26.11	0
5	137360	26.21	0
5	137906	26.31	0
5	138452	26.41	0
5	138998	26.51	0
5	139544	26.61	0
5	140090	26.71	0
5	140636	26.81	0
5	141182	26.91	0
5	141736	27.01	0
5	142282	27.11	0
5	142828	27.21	0
5	143374	27.31	0
5	143920	27.41	0
5	144466	27.51	0
5	145012	27.61	0
5	145558	27.71	0
5	146104	27.81	0
5	146650	27.91	0
5	147204	28.01	0
5	147750	28.11	0
5	148296	28.21	0
5	148842	28.31	0
5	149388	28.41	0
5	149934	28.51	0
5	150480	28.61	0
5	151026	28.71	0
5	151572	28.81	0
5	152118	28.91	0
5	152672	29.01	0
5	153218	29.11	0
5	153764	29.21	0
5	154310	29.31	0
5	154856	29.41	0
5	155402	29.51	0
5	155948	29.61	0
5	156494	29.71	0
5	157040	29.81	0
5	157586	29.91	0
5	158140	30.01	0
5	158686	30.11	0
5	159232	30.21	0
5	159778	30.31	0
5	160324	30.41	0
5	160870	30.51	0
5	161416	30.61	0
5	161962	30.71	0
5	162508	30.81	0
5	163054	30.91	0
5	163608	31.01	0
5	164154	31.11	0
5	164700	31.21	0
5	165246	31.31	0
5	165792	31.41	0
5	166338	31.51	0
5	166884	31.61	0
5	167430	31.71	0
5	167976	31.81	0
5	168522	31.91	0
5	169076	32.01	0
5	169622	32.11	0
5	170168	32.21	0
5	170714	32.31	0
5	171260	32.41	0
5	171806	32.51	0
5	172352	32.61	0
5	172898	32.71	0
5	173444	32.81	0
5	173990	32.91	0
5	174544	33.01	0
5	175090	33.11	0
5	175636	33.21	0
5	176182	33.31	0
5	176728	33.41	0
5	177274	33.51	0
5	177820	33.61	0
5	178366	33.71	0
5	178912	33.81	0
5	179458	33.91	0
5	180012	34.01	0
5	180558	34.11	0
5	181104	34.21	0
5	181650	34.31	0
5	182196	34.41	0
5	182742	34.51	0
5	183288	34.61	0
5	183834	34.71	0
5	184380	34.81	0
5	184926	34.91	0
5	185480	35.01	0
5	186026	35.11	0
5	186572	35.21	0
5	187118	35.31	0
5	187664	35.41	0
5	188210	35.51	0
5	188756	35.61	0
5	189302	35.71	0
5	189848	35.81	0
5	190394	35.91	0
5	190948	36.01	0
5	191494	36.11	0
5	192040	36.21	0
5	192586	36.31	0
5	193132	36.41	0
5	193678	36.51	0
5	194224	36.61	0
5	194770	36.71	0
5	195316	36.81	0
5	195862	36.91	0
5	196416	37.01	0
5	196962	37.11	0
5	197508	37.21	0
5	198054	37.31	0
5	198600	37.41	0
5	199146	37.51	0
5	199692	37.61	0
5	200238	37.71	0
5	200784	37.81	0
5	201330	37.91	0
5	201884	38.01	0
5	202430	38.11	0
5	202976	38.21	0
5	203522	38.31	0
5	204068	38.41	0
5	204614	38.51	0
5	205160	38.61	0
5	205706	38.71	0
5	206252	38.81	0
5	206798	38.91	0
5	207352	39.01	0
5	207898	39.11	0
5	208444	39.21	0
5	208990	39.31	0
5	209536	39.41	0
5	210082	39.51	0
5	210628	39.61	0
5	211174	39.71	0
5	211720	39.81	0
5	212266	39.91	0
5	212820	40.01	0
5	213366	40.11	0
5	213912	40.21	0
5	214458	40.31	0
5	215004	40.41	0
5	215550	40.51	0
5	216096	40.61	0
5	216642	40.71	0
5	217188	40.81	0
5	217734	40.91	0
5	218288	41.01	0
5	218834	41.11	0
5	219380	41.21	0
5	219926	41.31	0
5	220472	41.41	0
5	221018	41.51	0
5	221564	41.61	0
5	222110	41.71	0
5	222656	41.81	0
5	223202	41.91	0
5	223756	42.01	0
5	224302	42.11	0
5	224848	42.21	0
5	225394	42.31	0
5	225940	42.41	0
5	226486	42.51	0
5	227032	42.61	0
5	227578	42.71	0
5	228124	42.81	0
5	228670	42.91	0
5	229224	43.01	0
5	229770	43.11	0
5	230316	43.21	0
5	230862	43.31	0
5	231408	43.41	0
5	231954	43.51	0
5	232500	43.61	0
5	233046	43.71	0
5	233592	43.81	0
5	234138	43.91	0
5	234692	44.01	0
5	235238	44.11	0
5	235784	44.21	0
5	236330	44.31	0
5	236876	44.41	0
5	237422	44.51	0
5	237968	44.61	0
5	238514	44.71	0
5	239060	44.81	0
5	239606	44.91	0
5	240160	45.01	0
5	240706	45.11	0
5	241252	45.21	0
5	241798	45.31	0
5	242344	45.41	0
5	242890	45.51	0
5	243436	45.61	0
5	243982	45.71	0
5	244528	45.81	0
5	245074	45.91	0
5	245628	46.01	0
5	246174	46.11	0
5	246720	46.21	0
5	247266	46.31	0
5	247812	46.41	0
5	248358	46.51	0
5	248904	46.61	0
5	249450	46.71	0
5	249996	46.81	0
5	250542	46.91	0
5	251096	47.01	0
5	251642	47.11	0
5	252188	47.21	0
5	252734	47.31	0
5	253280	47.41	0
5	253826	47.51	0
5	254372	47.61	0
5	254918	47.71	0
5	255464	47.81	0
5	256010	47.91	0
5	256561	48.01	0
5	257104	48.11	0
5	257650	48.21	0
5	258196	48.31	0
5	258742	48.41	0
5	259288	48.51	0
5	259834	48.61	0
5	260380	48.71	0
5	260923	48.81	0
5	261469	48.91	0
5	262023	49.01	0
5	262569	49.11	0
5	263115	49.21	0
5	263661	49.31	0
5	264207	49.41	0
5	264753	49.51	0
5	265299	49.61	0
5	265845	49.71	0
5	266391	49.81	0
5	266937	49.91	0
5	267491	50.01	0
5	268037	50.11	0
5	268583	50.21	0
5	269126	50.31	0
5	269672	50.41	0
5	270215	50.51	0
5	270761	50.61	0
5	271307	50.71	0
5	271853	50.81	0
5	272396	50.91	0
5	272950	51.01	0
5	273496	51.11	0
5	274039	51.21	0
5	274582	51.31	0
5	275125	51.41	0
5	275662	51.51	0
5	276205	51.61	0
5	276751	51.71	0
5	277294	51.81	0
5	277840	51.91	0
5	278391	52.01	0
5	278928	52.11	0
5	279465	52.21	0
5	280011	52.31	0
5	280536	52.41	0
5	281073	52.51	0
5	281610	52.61	0
5	282150	52.71	0
5	282684	52.81	0
5	283218	52.91	0
5	283754	53.01	0
5	284288	53.11	0
5	284819	53.21	0
5	285347	53.31	0
5	285872	53.41	0
5	286400	53.51	0
5	286928	53.61	0
5	287453	53.71	0
5	287978	53.81	0
5	288503	53.91	0
5	289027	54.01	0
5	289534	54.11	0
5	290050	54.21	0
5	290563	54.31	0
5	291067	54.41	0
5	291583	54.51	0
5	292096	54.61	0
5	292609	54.71	0
5	293107	54.81	0
5	293605	54.91	0
5	294123	55.01	0
5	294627	55.11	0
5	295116	55.21	0
5	295599	55.31	0
5	296094	55.41	0
5	296580	55.51	0
5	297066	55.61	0
5	297543	55.71	0
5	298023	55.81	0
5	298503	55.91	0
5	298979	56.01	0
5	299453	56.11	0
5	299924	56.21	0
5	300404	56.31	0
5	300878	56.41	0
5	301340	56.51	0
5	301805	56.61	0
5	302267	56.71	0
5	302729	56.81	0
5	303194	56.91	0
5	303667	57.01	0
5	304123	57.11	0
5	304582	57.21	0
5	305038	57.31	0
5	305494	57.41	0
5	305956	57.51	0
5	306415	57.61	0
5	306871	57.71	0
5	307330	57.81	0
5	307789	57.91	0
5	308253	58.01	0
5	308709	58.11	0
5	309165	58.21	0
5	309621	58.31	0
5	310077	58.41	0
5	310533	58.51	0
5	310989	58.61	0
5	311445	58.71	0
5	311901	58.81	0
5	312357	58.91	0
5	312821	59.01	0
5	313277	59.11	0
5	313733	59.21	0
5	314189	59.31	0
5	314645	59.41	0
5	315101	59.51	0
5	315557	59.61	0
5	316013	59.71	0
5	316469	59.81	0
5	316925	59.91	0
1	113	1.11	0
1	659	1.21	0
1	1205	1.31	0
1	1751	1.41	0
1	2297	1.51	0
1	2843	1.61	0
1	3389	1.71	0
1	3935	1.81	0
1	4481	1.91	0
1	5035	2.01	0
1	5581	2.11	0
1	6127	2.21	0
1	6673	2.31	0
1	7219	2.41	0
1	7765	2.51	0
1	8311	2.61	0
1	8857	2.71	0
1	9403	2.81	0
1	9949	2.91	0
1	10503	3.01	0
1	11049	3.11	0
1	11595	3.21	0
1	12141	3.31	0
1	12687	3.41	0
1	13233	3.51	0
1	13779	3.61	0
1	14325	3.71	0
1	14871	3.81	0
1	15417	3.91	0
1	15971	4.01	0
1	16517	4.11	0
1	17063	4.21	0
1	17609	4.31	0
1	18155	4.41	0
1	18701	4.51	0
1	19247	4.61	0
1	19793	4.71	0
1	20339	4.81	0
1	20885	4.91	0
1	21440	5.01	0
1	21986	5.11	0
1	22532	5.21	0
1	23078	5.31	0
1	23624	5.41	0
1	24170	5.51	0
1	24716	5.61	0
1	25262	5.71	0
1	25808	5.81	0
1	26354	5.91	0
1	26908	6.01	0
1	27454	6.11	0
1	28000	6.21	0
1	28546	6.31	0
1	29092	6.41	0
1	29638	6.51	0
1	30184	6.61	0
1	30730	6.71	0
1	31276	6.81	0
1	31822	6.91	0
1	32376	7.01	0
1	32922	7.11	0
1	33468	7.21	0
1	34014	7.31	0
1	34560	7.41	0
1	35106	7.51	0
1	35652	7.61	0
1	36198	7.71	0
1	36744	7.81	0
1	37290	7.91	0
1	37844	8.01	0
1	38390	8.11	0
1	38936	8.21	0
1	39482	8.31	0
1	40028	8.41	0
1	40574	8.51	0
1	41120	8.61	0
1	41666	8.71	0
1	42212	8.81	0
1	42758	8.91	0
1	43312	9.01	0
1	43858	9.11	0
1	44404	9.21	0
1	44950	9.31	0
1	45496	9.41	0
1	46042	9.51	0
1	46588	9.61	0
1	47134	9.71	0
1	47680	9.81	0
1	48226	9.91	0
1	48780	10.01	0
1	49326	10.11	0
1	49872	10.21	0
1	50418	10.31	0
1	50964	10.41	0
1	51510	10.51	0
1	52056	10.61	0
1	52602	10.71	0
1	53148	10.81	0
1	53694	10.91	0
1	54248	11.01	0
1	54794	11.11	0
1	55340	11.21	0
1	55886	11.31	0
1	56432	11.41	0
1	56978	11.51	0
1	57524	11.61	0
1	58070	11.71	0
1	58616	11.81	0
1	59162	11.91	0
1	59716	12.01	0
1	60262	12.11	0
1	60808	12.21	0
1	61354	12.31	0
1	61900	12.41	0
1	62446	12.51	0
1	62992	12.61	0
1	63538	12.71	0
1	64084	12.81	0
1	64630	12.91	0
1	65184	13.01	0
1	65730	13.11	0
1	66276	13.21	0
1	66822	13.31	0
1	67368	13.41	0
1	67914	13.51	0
1	68460	13.61	0
1	69006	13.71	0
1	69552	13.81	0
1	70098	13.91	0
1	70652	14.01	0
1	71198	14.11	0
1	71744	14.21	0
1	72290	14.31	0
1	72836	14.41	0
1	73382	14.51	0
1	73928	14.61	0
1	74474	14.71	0
1	75020	14.81	0
1	75566	14.91	0
1	76120	15.01	0
1	76666	15.11	0
1	77212	15.21	0
1	77758	15.31	0
1	78304	15.41	0
1	78850	15.51	0
1	79396	15.61	0
1	79942	15.71	0
1	80488	15.81	0
1	81034	15.91	0
1	81588	16.01	0
1	82134	16.11	0
1	82680	16.21	0
1	83226	16.31	0
1	83772	16.41	0
1	84318	16.51	0
1	84864	16.61	0
1	85410	16.71	0
1	85956	16.81	0
1	86502	16.91	0
1	87056	17.01	0
1	87602	17.11	0
1	88148	17.21	0
1	88694	17.31	0
1	89240	17.41	0
1	89786	17.51	0
1	90332	17.61	0
1	90878	17.71	0
1	91424	17.81	0
1	91970	17.91	0
1	92524	18.01	0
1	93070	18.11	0
1	93616	18.21	0
1	94162	18.31	0
1	94708	18.41	0
1	95254	18.51	0
1	95800	18.61	0
1	96346	18.71	0
1	96892	18.81	0
1	97438	18.91	0
1	97992	19.01	0
1	98538	19.11	0
1	99084	19.21	0
1	99630	19.31	0
1	100176	19.41	0
1	100722	19.51	0
1	101268	19.61	0
1	101814	19.71	0
1	102360	19.81	0
1	102906	19.91	0
1	103460	20.01	0
1	104006	20.11	0
1	104552	20.21	0
1	105098	20.31	0
1	105644	20.41	0
1	106190	20.51	0
1	106736	20.61	0
1	107282	20.71	0
1	107828	20.81	0
1	108374	20.91	0
1	108928	21.01	0
1	109474	21.11	0
1	110020	21.21	0
1	110566	21.31	0
1	111112	21.41	0
1	111658	21.51	0
1	112204	21.61	0
1	112750	21.71	0
1	113296	21.81	0
1	113842	21.91	0
1	114396	22.01	0
1	114942	22.11	0
1	115488	22.21	0
1	116034	22.31	0
1	116580	22.41	0
1	117126	22.51	0
1	117672	22.61	0
1	118218	22.71	0
1	118764	22.81	0
1	119310	22.91	0
1	119864	23.01	0
1	120410	23.11	0
1	120956	23.21	0
1	121502	23.31	0
1	122048	23.41	0
1	122594	23.51	0
1	123140	23.61	0
1	123686	23.71	0
1	124232	23.81	0
1	124778	23.91	0
1	125332	24.01	0
1	125878	24.11	0
1	126424	24.21	0
1	126970	24.31	0
1	127516	24.41	0
1	128062	24.51	0
1	128608	24.61	0
1	129154	24.71	0
1	129700	24.81	0
1	130246	24.91	0
1	130800	25.01	0
1	131346	25.11	0
1	131892	25.21	0
1	132438	25.31	0
1	132984	25.41	0
1	133530	25.51	0
1	134076	25.61	0
1	134622	25.71	0
1	135168	25.81	0
1	135714	25.91	0
1	136268	26.01	0
1	136814	26.11	0
1	137360	26.21	0
1	137906	26.31	0
1	138452	26.41	0
1	138998	26.51	0
1	139544	26.61	0
1	140090	26.71	0
1	140636	26.81	0
1	141182	26.91	0
1	141736	27.01	0
1	142282	27.11	0
1	142828	27.21	0
1	143374	27.31	0
1	143920	27.41	0
1	144466	27.51	0
1	145012	27.61	0
1	145558	27.71	0
1	146104	27.81	0
1	146650	27.91	0
1	147204	28.01	0
1	147750	28.11	0
1	148296	28.21	0
1	148842	28.31	0
1	149388	28.41	0
1	149934	28.51	0
1	150480	28.61	0
1	151026	28.71	0
1	151572	28.81	0
1	152118	28.91	0
1	152672	29.01	0
1	153218	29.11	0
1	153764	29.21	0
1	154310	29.31	0
1	154856	29.41	0
1	155402	29.51	0
1	155948	29.61	0
1	156494	29.71	0
1	157040	29.81	0
1	157586	29.91	0
1	158140	30.01	0
1	158686	30.11	0
1	159232	30.21	0
1	159778	30.31	0
1	160324	30.41	0
1	160870	30.51	0
1	161416	30.61	0
1	161962	30.71	0
1	162508	30.81	0
1	163054	30.91	0
1	163608	31.01	0
1	164154	31.11	0
1	164700	31.21	0
1	165246	31.31	0
1	165792	31.41	0
1	166338	31.51	0
1	166884	31.61	0
1	167430	31.71	0
1	167976	31.81	0
1	168522	31.91	0
1	169076	32.01	0
1	169622	32.11	0
1	170168	32.21	0
1	170714	32.31	0
1	171260	32.41	0
1	171806	32.51	0
1	172352	32.61	0
1	172898	32.71	0
1	173444	32.81	0
1	173990	32.91	0
1	174544	33.01	0
1	175090	33.11	0
1	175636	33.21	0
1	176182	33.31	0
1	176728	33.41	0
1	177274	33.51	0
1	177820	33.61	0
1	178366	33.71	0
1	178912	33.81	0
1	179458	33.91	0
1	180012	34.01	0
1	180558	34.11	0
1	181104	34.21	0
1	181650	34.31	0
1	182196	34.41	0
1	182742	34.51	0
1	183288	34.61	0
1	183834	34.71	0
1	184380	34.81	0
1	184926	34.91	0
1	185480	35.01	0
1	186026	35.11	0
1	186572	35.21	0
1	187118	35.31	0
1	187664	35.41	0
1	188210	35.51	0
1	188756	35.61	0
1	189302	35.71	0
1	189848	35.81	0
1	190394	35.91	0
1	190948	36.01	0
1	191494	36.11	0
1	192040	36.21	0
1	192586	36.31	0
1	193132	36.41	0
1	193678	36.51	0
1	194224	36.61	0
1	194770	36.71	0
1	195316	36.81	0
1	195862	36.91	0
1	196416	37.01	0
1	196962	37.11	0
1	197508	37.21	0
1	198054	37.31	0
1	198600	37.41	0
1	199146	37.51	0
1	199692	37.61	0
1	200238	37.71	0
1	200784	37.81	0
1	201330	37.91	0
1	201884	38.01	0
1	202430	38.11	0
1	202976	38.21	0
1	203522	38.31	0
1	204068	38.41	0
1	204614	38.51	0
1	205160	38.61	0
1	205706	38.71	0
1	206252	38.81	0
1	206798	38.91	0
1	207352	39.01	0
1	207898	39.11	0
1	208444	39.21	0
1	208990	39.31	0
1	209536	39.41	0
1	210082	39.51	0
1	210628	39.61	0
1	211174	39.71	0
1	211720	39.81	0
1	212266	39.91	0
1	212820	40.01	0
1	213366	40.11	0
1	213912	40.21	0
1	214458	40.31	0
1	215004	40.41	0
1	215550	40.51	0
1	216096	40.61	0
1	216642	40.71	0
1	217188	40.81	0
1	217734	40.91	0
1	218288	41.01	0
1	218834	41.11	0
1	219380	41.21	0
1	219926	41.31	0
1	220472	41.41	0
1	221018	41.51	0
1	221564	41.61	0
1	222110	41.71	0
1	222656	41.81	0
1	223202	41.91	0
1	223756	42.01	0
1	224302	42.11	0
1	224848	42.21	0
1	225394	42.31	0
1	225940	42.41	0
1	226486	42.51	0
1	227032	42.61	0
1	227578	42.71	0
1	228124	42.81	0
1	228670	42.91	0
1	229224	43.01	0
1	229770	43.11	0
1	230316	43.21	0
1	230862	43.31	0
1	231408	43.41	0
1	231954	43.51	0
1	232500	43.61	0
1	233046	43.71	0
1	233592	43.81	0
1	234138	43.91	0
1	234692	44.01	0
1	235238	44.11	0
1	235784	44.21	0
1	236330	44.31	0
1	236876	44.41	0
1	237422	44.51	0
1	237968	44.61	0
1	238514	44.71	0
1	239060	44.81	0
1	239606	44.91	0
1	240160	45.01	0
1	240706	45.11	0
1	241252	45.21	0
1	241798	45.31	0
1	242344	45.41	0
1	242890	45.51	0
1	243436	45.61	0
1	243982	45.71	0
1	244528	45.81	0
1	245074	45.91	0
1	245628	46.01	0
1	246174	46.11	0
1	246720	46.21	0
1	247266	46.31	0
1	247812	46.41	0
1	248358	46.51	0
1	248904	46.61	0
1	249450	46.71	0
1	249996	46.81	0
1	250542	46.91	0
1	251096	47.01	0
1	251642	47.11	0
1	252188	47.21	0
1	252734	47.31	0
1	253280	47.41	0
1	253826	47.51	0
1	254372	47.61	0
1	254918	47.71	0
1	255464	47.81	0
1	256010	47.91	0
1	256561	48.01	0
1	257104	48.11	0
1	257650	48.21	0
1	258196	48.31	0
1	258742	48.41	0
1	259288	48.51	0
1	259834	48.61	0
1	260380	48.71	0
1	260923	48.81	0
1	261469	48.91	0
1	262023	49.01	0
1	262569	49.11	0
1	263115	49.21	0
1	263661	49.31	0
1	264207	49.41	0
1	264753	49.51	0
1	265299	49.61	0
1	265845	49.71	0
1	266391	49.81	0
1	266937	49.91	0
1	267491	50.01	0
1	268037	50.11	0
1	268583	50.21	0
1	269126	50.31	0
1	269672	50.41	0
1	270215	50.51	0
1	270761	50.61	0
1	271307	50.71	0
1	271853	50.81	0
1	272396	50.91	0
1	272950	51.01	0
1	273496	51.11	0
1	274039	51.21	0
1	274582	51.31	0
1	275125	51.41	0
1	275662	51.51	0
1	276205	51.61	0
1	276751	51.71	0
1	277294	51.81	0
1	277840	51.91	0
1	278391	52.01	0
1	278928	52.11	0
1	279465	52.21	0
1	280011	52.31	0
1	280536	52.41	0
1	281073	52.51	0
1	281610	52.61	0
1	282150	52.71	0
1	282684	52.81	0
1	283218	52.91	0
1	283754	53.01	0
1	284288	53.11	0
1	284819	53.21	0
1	285347	53.31	0
1	285872	53.41	0
1	286400	53.51	0
1	286928	53.61	0
1	287453	53.71	0
1	287978	53.81	0
1	288503	53.91	0
1	289027	54.01	0
1	289534	54.11	0
1	290050	54.21	0
1	290563	54.31	0
1	291067	54.41	0
1	291583	54.51	0
1	292096	54.61	0
1	292609	54.71	0
1	293107	54.81	0
1	293605	54.91	0
1	294123	55.01	0
1	294627	55.11	0
1	295116	55.21	0
1	295599	55.31	0
1	296094	55.41	0
1	296580	55.51	0
1	297066	55.61	0
1	297543	55.71	0
1	298023	55.81	0
1	298503	55.91	0
1	298979	56.01	0
1	299453	56.11	0
1	299924	56.21	0
1	300404	56.31	0
1	300878	56.41	0
1	301340	56.51	0
1	301805	56.61	0
1	302267	56.71	0
1	302729	56.81	0
1	303194	56.91	0
1	303667	57.01	0
1	304123	57.11	0
1	304582	57.21	0
1	305038	57.31	0
1	305494	57.41	0
1	305956	57.51	0
1	306415	57.61	0
1	306871	57.71	0
1	307330	57.81	0
1	307789	57.91	0
1	308253	58.01	0
1	308709	58.11	0
1	309165	58.21	0
1	309621	58.31	0
1	310077	58.41	0
1	310533	58.51	0
1	310989	58.61	0
1	311445	58.71	0
1	311901	58.81	0
1	312357	58.91	0
1	312821	59.01	0
1	313277	59.11	0
1	313733	59.21	0
1	314189	59.31	0
1	314645	59.41	0
1	315101	59.51	0
1	315557	59.61	0
1	316013	59.71	0
1	316469	59.81	0
1	316925	59.91	0
0	113	1.11	-1
0	659	1.21	-1
0	1205	1.31	-1
0	1751	1.41	-1
0	2297	1.51	-1
0	2843	1.61	-1
0	3389	1.71	-1
0	3935	1.81	-1
0	4481	1.91	-1
0	5035	2.01	-1
0	5581	2.11	-1
0	6127	2.21	-1
0	6673	2.31	-1
0	7219	2.41	-1
0	7765	2.51	-1
0	8311	2.61	-1
0	8857	2.71	-1
0	9403	2.81	-1
0	9949	2.91	-1
0	10503	3.01	-1
0	11049	3.11	-1
0	11595	3.21	-1
0	12141	3.31	-1
0	12687	3.41	-1
0	13233	3.51	-1
0	13779	3.61	-1
0	14325	3.71	-1
0	14871	3.81	-1
0	15417	3.91	-1
0	15971	4.01	-1
0	16517	4.11	-1
0	17063	4.21	-1
0	17609	4.31	-1
0	18155	4.41	-1
0	18701	4.51	-1
0	19247	4.61	-1
0	19793	4.71	-1
0	20339	4.81	-1
0	20885	4.91	-1
0	21440	5.01	-1
0	21986	5.11	-1
0	22532	5.21	-1
0	23078	5.31	-1
0	23624	5.41	-1
0	24170	5.51	-1
0	24716	5.61	-1
0	25262	5.71	-1
0	25808	5.81	-1
0	26354	5.91	-1
0	26908	6.01	-1
0	27454	6.11	-1
0	28000	6.21	-1
0	28546	6.31	-1
0	29092	6.41	-1
0	29638	6.51	-1
0	30184	6.61	-1
0	30730	6.71	-1
0	31276	6.81	-1
0	31822	6.91	-1
0	32376	7.01	-1
0	32922	7.11	-1
0	33468	7.21	-1
0	34014	7.31	-1
0	34560	7.41	-1
0	35106	7.51	-1
0	35652	7.61	-1
0	36198	7.71	-1
0	36744	7.81	-1
0	37290	7.91	-1
0	37844	8.01	-1
0	38390	8.11	-1
0	38936	8.21	-1
0	39482	8.31	-1
0	40028	8.41	-1
0	40574	8.51	-1
0	41120	8.61	-1
0	41666	8.71	-1
0	42212	8.81	-1
0	42758	8.91	-1
0	43312	9.01	-1
0	43858	9.11	-1
0	44404	9.21	-1
0	44950	9.31	-1
0	45496	9.41	-1
0	46042	9.51	-1
0	46588	9.61	-1
0	47134	9.71	-1
0	47680	9.81	-1
0	48226	9.91	-1
0	48780	10.01	-1
0	49326	10.11	-1
0	49872	10.21	-1
0	50418	10.31	-1
0	50964	10.41	-1
0	51510	10.51	-1
0	52056	10.61	-1
0	52602	10.71	-1
0	53148	10.81	-1
0	53694	10.91	-1
0	54248	11.01	-1
0	54794	11.11	-1
0	55340	11.21	-1
0	55886	11.31	-1
0	56432	11.41	-1
0	56978	11.51	-1
0	57524	11.61	-1
0	58070	11.71	-1
0	58616	11.81	-1
0	59162	11.91	-1
0	59716	12.01	-1
0	60262	12.11	-1
0	60808	12.21	-1
0	61354	12.31	-1
0	61900	12.41	-1
0	62446	12.51	-1
0	62992	12.61	-1
0	63538	12.71	-1
0	64084	12.81	-1
0	64630	12.91	-1
0	65184	13.01	-1
0	65730	13.11	-1
0	66276	13.21	-1
0	66822	13.31	-1
0	67368	13.41	-1
0	67914	13.51	-1
0	68460	13.61	-1
0	69006	13.71	-1
0	69552	13.81	-1
0	70098	13.91	-1
0	70652	14.01	-1
0	71198	14.11	-1
0	71744	14.21	-1
0	72290	14.31	-1
0	72836	14.41	-1
0	73382	14.51	-1
0	73928	14.61	-1
0	74474	14.71	-1
0	75020	14.81	-1
0	75566	14.91	-1
0	76120	15.01	-1
0	76666	15.11	-1
0	77212	15.21	-1
0	77758	15.31	-1
0	78304	15.41	-1
0	78850	15.51	-1
0	79396	15.61	-1
0	79942	15.71	-1
0	80488	15.81	-1
0	81034	15.91	-1
0	81588	16.01	-1
0	82134	16.11	-1
0	82680	16.21	-1
0	83226	16.31	-1
0	83772	16.41	-1
0	84318	16.51	-1
0	84864	16.61	-1
0	85410	16.71	-1
0	85956	16.81	-1
0	86502	16.91	-1
0	87056	17.01	-1
0	87602	17.11	-1
0	88148	17.21	-1
0	88694	17.31	-1
0	89240	17.41	-1
0	89786	17.51	-1
0	90332	17.61	-1
0	90878	17.71	-1
0	91424	17.81	-1
0	91970	17.91	-1
0	92524	18.01	-1
0	93070	18.11	-1
0	93616	18.21	-1
0	94162	18.31	-1
0	94708	18.41	-1
0	95254	18.51	-1
0	95800	18.61	-1
0	96346	18.71	-1
0	96892	18.81	-1
0	97438	18.91	-1
0	97992	19.01	-1
0	98538	19.11	-1
0	99084	19.21	-1
0	99630	19.31	-1
0	100176	19.41	-1
0	100722	19.51	-1
0	101268	19.61	-1
0	101814	19.71	-1
0	102360	19.81	-1
0	102906	19.91	-1
0	103460	20.01	-1
0	104006	20.11	-1
0	104552	20.21	-1
0	105098	20.31	-1
0	105644	20.41	-1
0	106190	20.51	-1
0	106736	20.61	-1
0	107282	20.71	-1
0	107828	20.81	-1
0	108374	20.91	-1
0	108928	21.01	-1
0	109474	21.11	-1
0	110020	21.21	-1
0	110566	21.31	-1
0	111112	21.41	-1
0	111658	21.51	-1
0	112204	21.61	-1
0	112750	21.71	-1
0	113296	21.81	-1
0	113842	21.91	-1
0	114396	22.01	-1
0	114942	22.11	-1
0	115488	22.21	-1
0	116034	22.31	-1
0	116580	22.41	-1
0	117126	22.51	-1
0	117672	22.61	-1
0	118218	22.71	-1
0	118764	22.81	-1
0	119310	22.91	-1
0	119864	23.01	-1
0	120410	23.11	-1
0	120956	23.21	-1
0	121502	23.31	-1
0	122048	23.41	-1
0	122594	23.51	-1
0	123140	23.61	-1
0	123686	23.71	-1
0	124232	23.81	-1
0	124778	23.91	-1
0	125332	24.01	-1
0	125878	24.11	-1
0	126424	24.21	-1
[...]
69	288151	53.854410452978	7
69	288667	53.954412554569	7
69	289194	54.054414706567	7
69	289701	54.154416908969	7
69	290214	54.254419161776	7
69	290718	54.35442146499	7
69	291234	54.454410818608	7
69	291750	54.554413222631	7
69	292263	54.654415677059	7
69	292767	54.754418181893	7
69	293268	54.854420737132	7
69	293763	54.954410342776	7
69	294284	55.054412998826	7
69	294782	55.154415705281	7
69	295268	55.254418462141	7
69	295760	55.354421269407	7
69	296252	55.454411127078	7
69	296732	55.554414035154	7
69	297215	55.654416993636	7
69	297692	55.754420002523	7
69	298178	55.854410061815	7
69	298649	55.954413171513	7
69	299131	56.054416331616	7
69	299605	56.154419542123	7
69	300079	56.254422803037	7
69	300559	56.354413114355	7
69	301024	56.454416476078	7
69	301489	56.554419888208	7
69	301954	56.654410350742	7
69	302419	56.754413863681	7
69	302881	56.854417427025	7
69	303346	56.954421040775	7
69	303813	57.05441170493	7
69	304269	57.15441541949	7
69	304728	57.254419184456	7
69	305184	57.354409999827	7
69	305640	57.454413865603	7
69	306105	57.554417781785	7
69	306561	57.654421748372	7
69	307020	57.754412765364	7
69	307479	57.854416832762	7
69	307935	57.954420950565	7
69	308399	58.054412118773	7
69	308855	58.154416337387	7
69	309311	58.254420606406	7
69	309767	58.354411925829	7
69	310223	58.454416295659	7
69	310679	58.554420715893	7
69	311135	58.654412186532	7
69	311591	58.754416707578	7
69	312047	58.854421279028	7
69	312503	58.954412900883	7
69	312967	59.054417573143	7
69	313423	59.154422295809	7
69	313879	59.25441406888	7
69	314335	59.354418892356	7
69	314791	59.454410766238	7
69	315247	59.554415690525	7
69	315703	59.654420665217	7
69	316159	59.754412690315	7
69	316615	59.854417765818	7
69	317071	59.954422891726	7
85	934	1.254876247055	7
85	1480	1.354851585716	7
85	2026	1.454878924377	7
85	2572	1.554828263038	7
85	3118	1.654894601698	7
85	3664	1.754856940357	7
85	4210	1.854884279017	7
85	4756	1.954859617676	7
85	5310	2.054886956333	7
85	5856	2.154849294988	7
85	6402	2.254863633643	7
85	6948	2.354812972295	7
85	7494	2.454801310945	7
85	8040	2.554867649595	7
85	8586	2.654881988242	7
85	9132	2.754883326888	7
85	9678	2.854871665531	7
85	10224	2.95488600417	7
85	10778	3.054822342806	7
85	11324	3.15481068144	7
85	11870	3.25482502007	7
85	12416	3.354878358697	7
85	12962	3.454840697321	7
85	13508	3.554842035941	7
85	14054	3.654895374559	7
85	14600	3.754844713172	7
85	15146	3.854885051781	7
85	15692	3.954834390388	7
85	16246	4.054809728993	7
85	16792	4.154850067593	7
85	17338	4.254812406192	7
85	17884	4.354839744789	7
85	18430	4.454841083385	7
85	18976	4.554868421981	7
85	19522	4.654882760576	7
85	20068	4.754858099171	7
85	20614	4.854833437768	7
85	21160	4.954860776366	7
85	21715	5.054797114962	7
85	22261	5.154863453492	7
85	22807	5.254825791805	7
85	23353	5.354892129675	7
85	23899	5.454880466796	7
85	24445	5.554829802789	7
85	24991	5.654896137197	7
85	25537	5.754806469487	7
85	26083	5.854872799044	7
85	26629	5.95482212517	7
85	27183	6.054797447095	7
85	27729	6.154837763965	7
85	28275	6.254865074851	7
85	28821	6.354853378755	7
85	29367	6.454893674605	7
85	29913	6.554803961261	7
85	30459	6.654818237512	7
85	31005	6.75481950209	7
85	31551	6.854820753661	7
85	32097	6.954886990836	7
85	32651	7.054823212171	7
85	33197	7.154850416182	7
85	33743	7.254890601356	7
85	34289	7.354891766168	7
85	34835	7.454892909125	7
85	35381	7.554881028804	7
85	35927	7.654882123875	7
85	36473	7.754870193112	7
85	37019	7.854897235408	7
85	37565	7.954898249789	7
85	38119	8.054847235422	7
85	38665	8.154835191625	7
85	39211	8.254836117854	7
85	39757	8.354798013677	7
85	40303	8.454824878771	7
85	40849	8.554799712928	7
85	41395	8.654826516025	7
85	41941	8.754879288013	7
85	42487	8.854893028902	7
85	43033	8.954880738759	7
85	43587	9.054829417905	7
85	44133	9.154817067007	7
85	44679	9.25480468677	7
85	45225	9.354805277963	7
85	45771	9.454857841677	7
85	46317	9.554871379115	7
85	46863	9.654806891532	7
85	47409	9.754885380289	7
85	47955	9.85479484685	7
85	48501	9.954886292758	7
85	49055	10.05482171962	7
85	49601	10.154835129091	7
85	50147	10.254887522874	7
85	50693	10.354822902682	7
85	51239	10.454875270156	7
85	51785	10.55488862686	7
85	52331	10.654849974288	7
85	52877	10.754850313815	7
85	53423	10.854863646665	7
85	53969	10.954863973931	7
85	54523	11.054838296599	7
85	55069	11.154838615541	7
85	55615	11.254812931477	7
85	56161	11.354839244964	7
85	56707	11.454878556425	7
85	57253	11.554826866169	7
85	57799	11.654840174412	7
85	58345	11.754840481298	7
85	58891	11.854853786908	7
85	59437	11.954841091273	7
85	59991	12.054828394384	7
85	60537	12.154828696192	7
85	61083	12.254802996628	7
85	61629	12.354868295595	7
85	62175	12.454855592979	7
85	62721	12.554881888649	7
85	63267	12.654843182464	7
85	63813	12.754830474271	7
85	64359	12.85480476391	7
85	64905	12.954818051209	7
85	65459	13.054805335998	7
85	66005	13.154844618097	7
85	66551	13.254883897322	7
85	67097	13.35489717349	7
85	67643	13.454845446664	7
85	68189	13.554871716933	7
85	68735	13.654832984104	7
85	69281	13.754807247985	7
85	69827	13.85483350838	7
85	70373	13.954794765092	7
85	70927	14.054834017925	7
85	71473	14.154795266683	7
85	72019	14.254808511167	7
85	72565	14.354821751179	7
85	73111	14.454886987753	7
85	73657	14.554822222794	7
85	74203	14.654874456205	7
85	74749	14.754796687885	7
85	75295	14.854796917735	7
85	75841	14.954797145653	7
85	76395	15.054836371547	7
85	76941	15.154888595329	7
85	77487	15.254836816936	7
85	78033	15.354876036307	7
85	78579	15.454850253392	7
85	79125	15.554798468142	7
85	79671	15.654889680509	7
85	80217	15.754876890447	7
85	80763	15.854890097909	7
85	81309	15.954799302849	7
85	81863	16.05483850938	7
85	82397	16.154890717637	7
85	82937	16.254864927657	7
85	83483	16.354852139476	7
85	84029	16.454878353133	7
85	84575	16.554813568664	7
85	85121	16.654865786103	7
85	85667	16.754853006907	7
85	86207	16.854801234668	7
85	86747	16.954866469501	7
85	87301	17.05485371152	7
85	87847	17.154840960836	7
85	88387	17.254828217559	7
85	88933	17.354828481794	7
85	89479	17.454867753649	7
85	90025	17.55484203323	7
85	90571	17.654803322732	7
85	91117	17.754855625555	7
85	91663	17.854855941899	7
85	92209	17.954895271964	7
85	92763	18.054869615949	7
85	93309	18.154843974055	7
85	93855	18.254844346483	7
85	94407	18.35485773343	7
85	94953	18.454845135099	7
85	95499	18.554832551687	7
85	96045	18.654819983397	7
85	96591	18.754807430427	7
85	97143	18.854820892978	7
85	97689	18.954834371248	7
85	98243	19.054821865439	7
85	98789	19.154835375752	7
85	99335	19.254835902386	7
85	99881	19.354849445541	7
85	100427	19.454889005417	7
85	100973	19.554863582216	7
85	101519	19.654851176137	7
85	102065	19.75485178738	7
85	102611	19.854852416144	7
85	103157	19.95485306263	7
85	103711	20.054879727038	7
85	104257	20.154841409568	7
85	104803	20.254894110423	7
85	105349	20.354868829799	7
85	105895	20.454843567898	7
85	106441	20.55488332492	7
85	106987	20.654858101066	7
85	107533	20.754884896534	7
85	108079	20.854820711525	7
85	108625	20.954886546241	7
85	109179	21.054835400878	7
85	109725	21.154836275641	7
85	110271	21.254811170725	7
85	110817	21.354864086336	7
85	111363	21.45481302267	7
85	111909	21.554813979929	7
85	112455	21.654801958311	7
85	113001	21.754880958017	7
85	113547	21.854855979249	7
85	114093	21.954844022205	7
85	114647	22.054845087088	7
85	115193	22.154833174095	7
85	115739	22.254795283427	7
85	116285	22.354809415284	7
85	116831	22.454888569868	7
85	117377	22.554863747377	7
85	117923	22.654890948011	7
85	118469	22.754866171972	7
85	119015	22.854854419459	7
85	119561	22.954881690672	7
85	120115	23.054882985811	7
85	120661	23.154819305077	7
85	121207	23.25479464867	7
85	121753	23.354809016789	7
85	122299	23.454797409635	7
85	122845	23.554876827407	7
85	123391	23.654839270308	7
85	123937	23.754892738535	7
85	124483	23.85484223229	7
85	125029	23.954869751774	7
85	125583	24.054858297184	7
85	126129	24.154820868722	7
85	126675	24.254809466587	7
85	127221	24.354824090982	7
85	127767	24.454851742104	7
85	128313	24.554814420156	7
85	128859	24.654868125335	7
85	129405	24.754882857844	7
85	129951	24.854806617881	7
85	130497	24.954847405647	7
85	131051	25.054810221342	7
85	131597	25.154890065167	7
85	132143	25.25482693732	7
85	132689	25.354802838002	7
85	133235	25.454882767415	7
85	133781	25.554819725758	7
85	134327	25.65486071323	7
85	134873	25.754849730033	7
85	135419	25.854812776365	7
85	135965	25.954892852429	7
85	136519	26.054829958422	7
85	137065	26.154897094547	7
85	137611	26.254847261002	7
85	138157	26.354888457989	7
85	138703	26.454812685708	7
85	139249	26.554892944356	7
85	139795	26.654882234136	7
85	140341	26.754884555248	7
85	140887	26.854847907891	7
85	141433	26.954837292265	7
85	141987	27.054865708572	7
85	142533	27.15489415701	7
85	143079	27.25487063778	7
85	143625	27.354795151084	7
85	144171	27.45482369712	7
85	144717	27.554813276089	7
85	145263	27.654854888189	7
85	145809	27.754805533624	7
85	146355	27.854873212592	7
85	146901	27.954836925291	7
85	147455	28.054839671924	7
85	148001	28.15486845269	7
85	148547	28.254871267791	7
85	149093	28.354848117425	7
85	149639	28.454864001792	7
85	150185	28.554853921093	7
85	150731	28.654869875529	7
85	151277	28.754859865297	7
85	151823	28.8548238906	7
85	152369	28.954878951641	7
85	152923	29.054804048615	7
85	153469	29.154846181724	7
85	154015	29.254810351167	7
85	154561	29.354839557147	7
85	155107	29.454803799861	7
85	155653	29.55484607951	7
85	156199	29.654875396295	7
85	156745	29.754813750414	7
85	157291	29.854882142071	7
85	157837	29.954846571461	7
85	158391	30.054811038791	7
85	158937	30.154853544254	7
85	159483	30.254896088055	7
85	160029	30.354873670391	7
85	160575	30.454877291464	7
85	161121	30.554880951474	7
85	161667	30.654897650621	7
85	162213	30.754810389106	7
85	162759	30.854814167126	7
85	163305	30.954882984885	7
85	163859	31.05480884258	7
85	164405	31.154890740414	7
85	164951	31.254881678585	7
85	165497	31.354859657293	7
85	166043	31.45483767674	7
85	166589	31.554802737125	7
85	167135	31.654897838649	7
85	167681	31.75486298151	7
85	168227	31.854815165911	7
85	168773	31.95485839205	7
85	169327	32.054875660127	7
85	169873	32.154840970343	7
85	170419	32.254832322899	7
85	170965	32.354849717995	7
85	171511	32.454880155828	7
85	172057	32.554832636603	7
85	172603	32.654798160516	7
85	173149	32.754815727768	7
85	173695	32.854846338561	7
85	174241	32.954837993094	7
85	174795	33.054894691568	7
85	175341	33.154860434181	7
85	175887	33.254813221136	7
85	176433	33.354831052631	7
85	176979	33.454835928867	7
85	177525	33.554801850044	7
85	178071	33.654884816361	7
85	178617	33.75488982802	7
85	179163	33.85481688522	7
85	179709	33.954886988162	7
85	180263	34.054840137044	7
85	180809	34.15485833207	7
85	181355	34.254811573437	7
85	181901	34.354868861345	7
85	182447	34.454848195995	7
85	182993	34.554853577589	7
85	183539	34.654859006325	7
85	184085	34.7548384824	7
85	184631	34.854805006011	7
85	185177	34.954875577345	7
85	185731	35.054881196591	7
85	186277	35.154886863926	7
85	186823	35.254801579524	7
85	187369	35.354898343551	7
85	187915	35.454852156166	7
85	188461	35.554858017524	7
85	189007	35.654889927769	7
85	189553	35.754895887043	7
85	190099	35.854849895482	7
85	190645	35.954868953215	7
85	191199	36.054836060368	7
85	191745	36.15480321706	7
85	192291	36.254822423408	7
85	192837	36.354802679521	7
85	193383	36.454808985498	7
85	193929	36.554828341436	7
85	194475	36.65488674742	7
85	195021	36.754893203526	7
85	195567	36.854834709824	7
85	196113	36.954854266372	7
85	196667	37.054808873224	7
85	197213	37.154841530423	7
85	197759	37.254835238005	7
85	198305	37.354828996004	7
85	198851	37.454900804445	7
85	199397	37.554881663348	7
85	199943	37.654849572727	7
85	200489	37.754869532595	7
85	201035	37.85482454296	7
85	201581	37.954883603827	7
85	202135	38.054877715195	7
85	202681	38.154871877068	7
85	203227	38.254801089441	7
85	203773	38.354899352314	7
85	204319	38.454815665681	7
85	204865	38.554836029538	7
85	205411	38.654830443878	7
85	205957	38.754850908696	7
85	206503	38.854832423985	7
85	207049	38.95481398974	7
85	207603	39.054899605952	7
85	208149	39.154868272617	7
85	208695	39.25479798973	7
85	209241	39.354818757284	7
85	209787	39.454826575274	7
85	210333	39.554860443696	7
85	210879	39.654816362544	7
85	211425	39.754850331816	7
85	211971	39.854871351506	7
85	212517	39.954827421612	7
85	213071	40.054809542132	7
85	213617	40.154830713063	7
85	214163	40.254877934402	7
85	214709	40.354899206147	7
85	215255	40.454816528299	7
85	215801	40.554837900855	7
85	216347	40.654898323813	7
85	216893	40.754802797176	7
85	217439	40.85488932094	7
85	217985	40.954884895103	7
85	218539	41.054802519668	7
85	219085	41.154850194635	7
85	219631	41.254832920002	7
85	220177	41.354893695769	7
85	220723	41.454863521938	7
85	221269	41.554807398507	7
85	221815	41.654868325478	7
85	222361	41.754864302851	7
85	222907	41.854886330627	7
85	223453	41.954843408804	7
85	224007	42.054852537384	7
85	224553	42.154822716367	7
85	225099	42.254844945752	7
85	225645	42.35480222554	7
85	226191	42.454889555733	7
85	226737	42.554872936329	7
85	227283	42.654882367329	7
85	227829	42.754891848732	7
85	228375	42.854888380541	7
85	228921	42.954897962754	7
85	229475	43.054829595372	7
85	230021	43.154800278394	7
85	230567	43.254901011822	7
85	231113	43.354845795655	7
85	231659	43.454868629893	7
85	232205	43.554878514539	7
85	232751	43.654888449589	7
85	233297	43.754898435045	7
85	233843	43.854869470905	7
85	234389	43.954801557171	7
85	234943	44.054889693842	7
85	235489	44.154886880917	7
85	236035	44.254832118401	7
85	236581	44.354803406289	7
85	237127	44.45489174458	7
85	237673	44.554811133278	7
85	238219	44.65483457238	7
85	238765	44.754832061888	7
85	239311	44.854894601802	7
85	239857	44.954840192121	7
85	240411	45.054850832846	7
85	240957	45.154835523975	7
85	241503	45.25487226551	7
85	242049	45.354883057451	7
85	242595	45.454815899796	7
85	243141	45.554813792547	7
85	243687	45.654863735704	7
85	244233	45.754874729265	7
85	244779	45.854859773233	7
85	245325	45.954857867605	7
85	245879	46.054895012382	7
85	246425	46.154802207566	7
85	246971	46.254891453154	7
85	247517	46.354863749147	7
85	248063	46.454901095547	7
85	248609	46.554899492351	7
85	249155	46.65487193956	7
85	249701	46.754805437176	7
85	250247	46.854842985196	7
85	250793	46.954828583621	7
85	251347	47.054827232453	7
85	251893	47.154812931689	7
85	252439	47.25481168133	7
85	252985	47.354823481378	7
85	253531	47.45490033183	7
85	254077	47.554847232687	7
85	254623	47.654859183951	7
85	255169	47.754897185619	7
85	255715	47.854844237691	7
85	256261	47.95484334017	7
85	256812	48.054894493054	7
85	257355	48.154880696342	7
85	257901	48.254814950035	7
85	258447	48.354866254135	7
85	258993	48.454878608639	7
85	259539	48.554878013548	7
85	260085	48.654877468864	7
85	260631	48.754850974584	7
85	261174	48.854863530709	7
85	261720	48.954824137241	7
85	262274	49.054901794177	7
85	262820	49.154836501518	7
85	263366	49.254888259266	7
85	263912	49.354810067418	7
85	264458	49.454848925975	7
85	265004	49.554822834939	7
85	265550	49.654822794307	7
85	266096	49.75490080408	7
85	266642	49.854822864259	7
85	267188	49.954887974843	7
85	267742	50.054836135831	7
85	268288	50.154888347226	7
85	268831	50.254875609026	7
85	269377	50.35481092123	7
85	269923	50.454824283839	7
85	270466	50.554863696855	7
85	271012	50.654890160275	7
85	271558	50.7548126741	7
85	272104	50.854878238332	7
85	272647	50.954891852968	7
85	273201	51.054801518009	7
85	273747	51.154841233457	7
85	274287	51.254893999309	7
85	274833	51.354803815566	7
85	275376	51.45488268223	7
85	275910	51.554896599298	7
85	276456	51.654871566771	7
85	277002	51.75488558465	7
85	277545	51.854886652934	7
85	278091	51.954887771623	7
85	278639	52.054875940718	7
85	279176	52.154851160218	7
85	279716	52.254865430122	7
85	280253	52.354801750431	7
85	280784	52.454816121147	7
85	281321	52.554882542267	7
85	281861	52.654871013792	7
85	282395	52.754859535724	7
85	282932	52.85488710806	7
85	284002	53.054851403949	7
85	284530	53.154814127501	7
85	285064	53.254815901458	7
85	285589	53.354830725822	7
85	286114	53.45489760059	7
85	286645	53.554860525763	7
85	287170	53.654862501343	7
85	287695	53.754877527327	7
85	288226	53.854879603716	7
85	289269	54.054896907711	7
85	289776	54.154808135315	7
85	290283	54.254836413326	7
85	290790	54.354864741742	7
85	291309	54.454828120562	7
85	291825	54.554869549787	7
85	292338	54.654820029419	7
85	292839	54.754861559455	7
85	293340	54.854812139896	7
85	293838	54.954892770744	7
85	294356	55.054817451996	7
85	294851	55.154833183653	7
85	295340	55.254809965717	7
85	295829	55.354812798185	7
85	296321	55.454854681058	7
85	296801	55.554870614338	7
85	297287	55.654886598022	7
85	297764	55.754902632111	7
85	298247	55.854814716607	7
85	298715	55.954856851507	7
85	299203	56.054834036812	7
85	299671	56.154811272523	7
85	300151	56.254827558639	7
85	300625	56.354869895159	7
85	301555	56.554863719418	7
85	302947	56.854887333843	7
85	305706	57.454870923637	7
115	4901	2	0
115	10369	3	0
115	15837	4	0
115	21306	5	0
115	26774	6	0
115	32242	7	0
115	37710	8	0
115	43178	9	0
115	48646	10	0
115	54114	11	0
115	59582	12	0
115	65050	13	0
115	70518	14	0
115	75986	15	0
115	81454	16	0
115	86922	17	0
115	92390	18	0
115	97858	19	0
115	103326	20	0
115	108794	21	0
115	114262	22	0
115	119730	23	0
115	125198	24	0
115	130666	25	0
115	136134	26	0
115	141602	27	0
115	147070	28	0
115	152538	29	0
115	158006	30	0
115	163474	31	0
115	168942	32	0
115	174410	33	0
115	179878	34	0
115	185346	35	0
115	190814	36	0
115	196282	37	0
115	201750	38	0
115	207218	39	0
115	212686	40	0
115	218154	41	0
115	223622	42	0
115	229090	43	0
115	234558	44	0
115	240026	45	0
115	245494	46	0
115	250962	47	0
115	256430	48	0
115	261889	49	0
115	267357	50	0
115	272816	51	0
115	278260	52	0
115	283623	53	0
115	288902	54	0
115	293998	55	0
115	298863	56	0
115	303551	57	0
115	308137	58	0
115	312705	59	0
115	317273	60	0
114	4901	2	0.021849
114	10369	3	0.02497
114	15837	4	0.02497
114	21306	5	0.02497
114	26774	6	0.02497
114	32242	7	0.02497
114	37710	8	0.02497
114	43178	9	0.02497
114	48646	10	0.02497
114	54114	11	0.02497
114	59582	12	0.02497
114	65050	13	0.02497
114	70518	14	0.02497
114	75986	15	0.02497
114	81454	16	0.02497
114	86922	17	0.02497
114	92390	18	0.02497
114	97858	19	0.02497
114	103326	20	0.02497
114	108794	21	0.02497
114	114262	22	0.02497
114	119730	23	0.02497
114	125198	24	0.02497
114	130666	25	0.02497
114	136134	26	0.02497
114	141602	27	0.02497
114	147070	28	0.02497
114	152538	29	0.02497
114	158006	30	0.02497
114	163474	31	0.02497
114	168942	32	0.02497
114	174410	33	0.02497
114	179878	34	0.02497
114	185346	35	0.02497
114	190814	36	0.02497
114	196282	37	0.02497
114	201750	38	0.02497
114	207218	39	0.02497
114	212686	40	0.02497
114	218154	41	0.02497
114	223622	42	0.02497
114	229090	43	0.02497
114	234558	44	0.02497
114	240026	45	0.02497
114	245494	46	0.02497
114	250962	47	0.02497
114	256430	48	0.02497
114	261889	49	0.02497
114	267357	50	0.02497
114	272816	51	0.02497
114	278260	52	0.02497
114	283623	53	0.02497
114	288902	54	0.02497
114	293998	55	0.02497
114	298863	56	0.02497
114	303551	57	0.02497
114	308137	58	0.02497
114	312705	59	0.02497
114	317273	60	0.02497
113	4901	2	7
113	10369	3	7
113	15837	4	7
113	21306	5	7
113	26774	6	7
113	32242	7	7
113	37710	8	7
113	43178	9	7
113	48646	10	7
113	54114	11	7
113	59582	12	7
113	65050	13	7
113	70518	14	7
113	75986	15	7
113	81454	16	7
113	86922	17	7
113	92390	18	7
113	97858	19	7
113	103326	20	7
113	108794	21	7
113	114262	22	7
113	119730	23	7
113	125198	24	7
113	130666	25	7
113	136134	26	7
113	141602	27	7
113	147070	28	7
113	152538	29	7
113	158006	30	7
113	163474	31	7
113	168942	32	7
113	174410	33	7
113	179878	34	7
113	185346	35	7
113	190814	36	7
113	196282	37	7
113	201750	38	7
113	207218	39	7
113	212686	40	7
113	218154	41	7
113	223622	42	7
113	229090	43	7
113	234558	44	7
113	240026	45	7
113	245494	46	7
113	250962	47	7
113	256430	48	7
113	261889	49	7
113	267357	50	7
113	272816	51	7
113	278260	52	7
113	283623	53	7
113	288902	54	7
113	293998	55	7
113	298863	56	7
113	303551	57	7
113	308137	58	7
113	312705	59	7
113	317273	60	7

