version 2
run BrakingNoGui-5-20200515-19:10:56-5789
attr configname BrakingNoGui
attr datetime 20200515-19:10:56
attr experiment BrakingNoGui
attr inifile omnetpp.ini
attr iterationvars "$nCars=8, $platoonSize=8, $nLanes=1, $ploegH=0.5, $controller=4, $sController=\"FLATBED\", $headway=0.1, $leaderHeadway=1.2, $leaderSpeed=100, $beaconInterval=0.1, $priority=4, $packetSize=200, $0=5, $1=0"
attr iterationvarsf nCars=8,platoonSize=8,nLanes=1,ploegH=0.5,controller=4,sController=FLATBED,headway=0.1,leaderHeadway=1.2,leaderSpeed=100,beaconInterval=0.1,priority=4,packetSize=200,5,0-
attr measurement "$nCars=8, $platoonSize=8, $nLanes=1, $ploegH=0.5, $controller=4, $sController=\"FLATBED\", $headway=0.1, $leaderHeadway=1.2, $leaderSpeed=100, $beaconInterval=0.1, $priority=4, $packetSize=200, $0=5, $1=0"
attr network Highway
attr processid 5789
attr repetition 0
attr replication #0
attr resultdir results
attr runnumber 5
attr seedset 0
itervar beaconInterval 0.1
itervar controller 4
itervar headway 0.1
itervar leaderHeadway 1.2
itervar leaderSpeed 100
itervar nCars 8
itervar nLanes 1
itervar packetSize 200
itervar platoonSize 8
itervar ploegH 0.5
itervar priority 4
itervar sController "\"FLATBED\""
param *.manager.command "\"sumo\""
param *.manager.ignoreGuiCommands true
param *.manager.command "\"sumo-gui\""
param *.node[*].scenario_type "\"BrakingScenario\""
param *.node[*].scenario.leaderOscillationFrequency "0.2 Hz"
param *.node[*].scenario.brakingDeceleration "8 mpsps"
param *.node[*].scenario.startBraking "5 s"
param *.playgroundSizeX 65000m
param *.playgroundSizeY 25000m
param *.playgroundSizeZ 50m
param *.annotations.draw false
param *.obstacles.debug false
param *.world.useTorus false
param *.world.use2D false
param *.manager.updateInterval 0.01s
param *.manager.host "\"localhost\""
param *.manager.moduleType "\"org.car2x.plexe.PlatoonCar\""
param *.manager.moduleName "\"node\""
param *.manager.moduleDisplayString "\"\""
param *.manager.autoShutdown true
param *.manager.margin 25
param *.connectionManager.sendDirect true
param *.connectionManager.maxInterfDist 2600m
param *.connectionManager.drawMaxIntfDist false
param *.**.nic.mac1609_4.useServiceChannel false
param *.**.nic.mac1609_4.txPower 100mW
param *.**.nic.mac1609_4.bitrate 6Mbps
param *.**.nic.mac1609_4.useAcks true
param *.**.nic.mac1609_4.ackErrorRate 0.0
param *.**.nic.mac1609_4.frameErrorRate 0.0
param *.**.nic.phy80211p.minPowerLevel -94dBm
param *.**.nic.phy80211p.maxTXPower 100mW
param *.**.nic.phy80211p.useNoiseFloor true
param *.**.nic.phy80211p.noiseFloor -95dBm
param *.**.nic.phy80211p.decider "xmldoc(\"config.xml\")"
param *.**.nic.phy80211p.analogueModels "xmldoc(\"config.xml\")"
param *.**.nic.phy80211p.usePropagationDelay true
param *.node[*].mobility.x 0
param *.node[*].mobility.y 0
param *.node[*].mobility.z 1.895
param **.seed 0
param *.manager.configFile "\"./sumocfg/freeway.sumo.cfg\""
param *.manager.launchConfig "xmldoc(\"./sumocfg/freeway.launchd.xml\")"
param **.numberOfCars 8
param **.numberOfCarsPerPlatoon 8
param **.numberOfLanes 1
param *.node[*].helper_type "\"PositionHelper\""
param *.node[*].scenario.caccC1 0.5
param *.node[*].scenario.caccXi 1
param *.node[*].scenario.caccOmegaN "0.2 Hz"
param *.node[*].scenario.caccSpacing "5 m"
param *.node[*].scenario.engineTau "0.5 s"
param *.node[*].scenario.ploegH 0.5s
param *.node[*].scenario.ploegKp 0.2
param *.node[*].scenario.ploegKd 0.7
param *.node[*].scenario.useRealisticEngine false
param *.node[*].scenario.useControllerAcceleration true
param *.node[*].scenario.nLanes 1
param **.numericController 4
param *.node[*].scenario.controller "\"FLATBED\""
param **.headway 0.1s
param *.node[*].scenario.accHeadway 0.1s
param *.node[*].scenario.leaderHeadway 1.2s
param *.node[*].scenario.leaderSpeed 100kmph
param *.node[*].appl_type "\"SimplePlatooningApp\""
param *.node[*].protocol_type "\"SimplePlatooningBeaconing\""
param *.node[*].prot.beaconingInterval 0.1s
param *.node[*].prot.priority 4
param *.node[*].prot.packetSize 200
param *.node[*].unicast.packetLossRate 0
param **.traffic_type "\"PlatoonsTrafficManager\""
param **.traffic.platoonInsertTime "1 s"
param **.traffic.platoonInsertSpeed 100kmph
param **.traffic.nCars 8
param **.traffic.platoonSize 8
param **.traffic.nLanes 1
param **.traffic.platooningVType "\"vtypeauto\""
param **.traffic.platoonInsertDistance 5m
param **.traffic.platoonInsertHeadway 0s
param **.traffic.platoonLeaderHeadway 1.2s

vector 0 Highway.node[0].appl distance ETV
vector 1 Highway.node[0].appl relativeSpeed ETV
vector 2 Highway.node[0].appl nodeId ETV
vector 3 Highway.node[0].appl acceleration ETV
vector 4 Highway.node[0].appl controllerAcceleration ETV
vector 5 Highway.node[0].appl speed ETV
vector 6 Highway.node[0].appl posx ETV
vector 7 Highway.node[0].appl posy ETV
vector 8 Highway.node[1].appl distance ETV
vector 9 Highway.node[1].appl relativeSpeed ETV
vector 10 Highway.node[1].appl nodeId ETV
vector 11 Highway.node[1].appl acceleration ETV
vector 12 Highway.node[1].appl controllerAcceleration ETV
vector 13 Highway.node[1].appl speed ETV
vector 14 Highway.node[1].appl posx ETV
vector 15 Highway.node[1].appl posy ETV
vector 16 Highway.node[2].appl distance ETV
vector 17 Highway.node[2].appl relativeSpeed ETV
vector 18 Highway.node[2].appl nodeId ETV
vector 19 Highway.node[2].appl acceleration ETV
vector 20 Highway.node[2].appl controllerAcceleration ETV
vector 21 Highway.node[2].appl speed ETV
vector 22 Highway.node[2].appl posx ETV
vector 23 Highway.node[2].appl posy ETV
vector 24 Highway.node[3].appl distance ETV
vector 25 Highway.node[3].appl relativeSpeed ETV
vector 26 Highway.node[3].appl nodeId ETV
vector 27 Highway.node[3].appl acceleration ETV
vector 28 Highway.node[3].appl controllerAcceleration ETV
vector 29 Highway.node[3].appl speed ETV
vector 30 Highway.node[3].appl posx ETV
vector 31 Highway.node[3].appl posy ETV
vector 32 Highway.node[4].appl distance ETV
vector 33 Highway.node[4].appl relativeSpeed ETV
vector 34 Highway.node[4].appl nodeId ETV
vector 35 Highway.node[4].appl acceleration ETV
vector 36 Highway.node[4].appl controllerAcceleration ETV
vector 37 Highway.node[4].appl speed ETV
vector 38 Highway.node[4].appl posx ETV
vector 39 Highway.node[4].appl posy ETV
vector 40 Highway.node[5].appl distance ETV
vector 41 Highway.node[5].appl relativeSpeed ETV
vector 42 Highway.node[5].appl nodeId ETV
vector 43 Highway.node[5].appl acceleration ETV
vector 44 Highway.node[5].appl controllerAcceleration ETV
vector 45 Highway.node[5].appl speed ETV
vector 46 Highway.node[5].appl posx ETV
vector 47 Highway.node[5].appl posy ETV
vector 48 Highway.node[6].appl distance ETV
vector 49 Highway.node[6].appl relativeSpeed ETV
vector 50 Highway.node[6].appl nodeId ETV
vector 51 Highway.node[6].appl acceleration ETV
vector 52 Highway.node[6].appl controllerAcceleration ETV
vector 53 Highway.node[6].appl speed ETV
vector 54 Highway.node[6].appl posx ETV
vector 55 Highway.node[6].appl posy ETV
vector 56 Highway.node[7].appl distance ETV
vector 57 Highway.node[7].appl relativeSpeed ETV
vector 58 Highway.node[7].appl nodeId ETV
vector 59 Highway.node[7].appl acceleration ETV
vector 60 Highway.node[7].appl controllerAcceleration ETV
vector 61 Highway.node[7].appl speed ETV
vector 62 Highway.node[7].appl posx ETV
vector 63 Highway.node[7].appl posy ETV
vector 64 Highway.node[3].prot frontDelay ETV
vector 65 Highway.node[3].prot frontDelayId ETV
vector 66 Highway.node[2].prot frontDelay ETV
vector 67 Highway.node[2].prot frontDelayId ETV
vector 68 Highway.node[7].prot frontDelay ETV
vector 69 Highway.node[7].prot frontDelayId ETV
vector 70 Highway.node[1].prot leaderDelay ETV
vector 71 Highway.node[1].prot leaderDelayId ETV
vector 72 Highway.node[1].prot frontDelay ETV
vector 73 Highway.node[1].prot frontDelayId ETV
vector 74 Highway.node[2].prot leaderDelay ETV
vector 75 Highway.node[2].prot leaderDelayId ETV
vector 76 Highway.node[3].prot leaderDelay ETV
vector 77 Highway.node[3].prot leaderDelayId ETV
vector 78 Highway.node[4].prot leaderDelay ETV
vector 79 Highway.node[4].prot leaderDelayId ETV
vector 80 Highway.node[5].prot leaderDelay ETV
vector 81 Highway.node[5].prot leaderDelayId ETV
vector 82 Highway.node[6].prot leaderDelay ETV
vector 83 Highway.node[6].prot leaderDelayId ETV
vector 84 Highway.node[7].prot leaderDelay ETV
vector 85 Highway.node[7].prot leaderDelayId ETV
vector 86 Highway.node[5].prot frontDelay ETV
vector 87 Highway.node[5].prot frontDelayId ETV
vector 88 Highway.node[4].prot frontDelay ETV
vector 89 Highway.node[4].prot frontDelayId ETV
vector 90 Highway.node[6].prot frontDelay ETV
vector 91 Highway.node[6].prot frontDelayId ETV
vector 92 Highway.node[0].prot nodeId ETV
vector 93 Highway.node[0].prot busyTime ETV
vector 94 Highway.node[0].prot collisions ETV
vector 95 Highway.node[1].prot nodeId ETV
vector 96 Highway.node[1].prot busyTime ETV
vector 97 Highway.node[1].prot collisions ETV
vector 98 Highway.node[2].prot nodeId ETV
vector 99 Highway.node[2].prot busyTime ETV
vector 100 Highway.node[2].prot collisions ETV
vector 101 Highway.node[3].prot nodeId ETV
vector 102 Highway.node[3].prot busyTime ETV
vector 103 Highway.node[3].prot collisions ETV
vector 104 Highway.node[4].prot nodeId ETV
vector 105 Highway.node[4].prot busyTime ETV
vector 106 Highway.node[4].prot collisions ETV
vector 107 Highway.node[5].prot nodeId ETV
vector 108 Highway.node[5].prot busyTime ETV
vector 109 Highway.node[5].prot collisions ETV
vector 110 Highway.node[6].prot nodeId ETV
vector 111 Highway.node[6].prot busyTime ETV
vector 112 Highway.node[6].prot collisions ETV
vector 113 Highway.node[7].prot nodeId ETV
vector 114 Highway.node[7].prot busyTime ETV
vector 115 Highway.node[7].prot collisions ETV
4	113	1.11	-0.00218518
4	659	1.21	-0.00213419
4	1205	1.31	-0.00205408
4	1751	1.41	-0.00195152
4	2297	1.51	-0.00183238
4	2843	1.61	-0.00170178
4	3389	1.71	-0.00156412
4	3935	1.81	-0.00142314
4	4481	1.91	-0.00128196
4	5035	2.01	-0.00114315
4	5581	2.11	-0.00100877
4	6127	2.21	-0.000880447
4	6673	2.31	-0.000759381
4	7219	2.41	-0.000646445
4	7765	2.51	-0.000542204
4	8311	2.61	-0.000446965
4	8857	2.71	-0.000360819
4	9403	2.81	-0.000283678
4	9949	2.91	-0.000215307
4	10503	3.01	-0.000155357
4	11049	3.11	-0.000103391
4	11595	3.21	-5.89069e-05
4	12141	3.31	-2.13575e-05
4	12687	3.41	9.82919e-06
4	13233	3.51	3.52368e-05
4	13779	3.61	5.54479e-05
4	14325	3.71	7.10335e-05
4	14871	3.81	8.25451e-05
4	15417	3.91	9.05081e-05
4	15971	4.01	9.54172e-05
4	16517	4.11	9.7733e-05
4	17063	4.21	9.78798e-05
4	17609	4.31	9.62447e-05
4	18155	4.41	9.31771e-05
4	18701	4.51	8.89894e-05
4	19247	4.61	8.39579e-05
4	19793	4.71	7.83245e-05
4	20339	4.81	7.22983e-05
4	20885	4.91	6.6058e-05
4	21440	5.01	-8
4	21986	5.11	-8
4	22532	5.21	-8
4	23078	5.31	-8
4	23624	5.41	-8
4	24170	5.51	-8
4	24716	5.61	-8
4	25262	5.71	-8
4	25808	5.81	-8
4	26354	5.91	-8
4	26908	6.01	-8
4	27454	6.11	-8
4	28000	6.21	-8
4	28546	6.31	-8
4	29092	6.41	-8
4	29638	6.51	-8
4	30184	6.61	-8
4	30730	6.71	-8
4	31276	6.81	-8
4	31822	6.91	-8
4	32376	7.01	-8
4	32922	7.11	-8
4	33468	7.21	-8
4	34014	7.31	-8
4	34560	7.41	-8
4	35106	7.51	-8
4	35652	7.61	-8
4	36198	7.71	-8
4	36744	7.81	-8
4	37290	7.91	-8
4	37844	8.01	-8
4	38390	8.11	-8
4	38936	8.21	-8
4	39482	8.31	-8
4	40028	8.41	-8
4	40574	8.51	-8
4	41120	8.61	-8
4	41666	8.71	-8
4	42212	8.81	-8
4	42758	8.91	-8
4	43312	9.01	0
4	43858	9.11	0
4	44404	9.21	0
4	44950	9.31	0
4	45496	9.41	0
4	46042	9.51	0
4	46588	9.61	0
4	47134	9.71	0
4	47680	9.81	0
4	48226	9.91	0
4	48780	10.01	0
4	49326	10.11	0
4	49872	10.21	0
4	50418	10.31	0
4	50964	10.41	0
4	51510	10.51	0
4	52056	10.61	0
4	52602	10.71	0
4	53148	10.81	0
4	53694	10.91	0
4	54248	11.01	0
4	54794	11.11	0
4	55340	11.21	0
4	55886	11.31	0
4	56432	11.41	0
4	56978	11.51	0
4	57524	11.61	0
4	58070	11.71	0
4	58616	11.81	0
4	59162	11.91	0
4	59716	12.01	0
4	60262	12.11	0
4	60808	12.21	0
4	61354	12.31	0
4	61900	12.41	0
4	62446	12.51	0
4	62992	12.61	0
4	63538	12.71	0
4	64084	12.81	0
4	64630	12.91	0
4	65184	13.01	0
4	65730	13.11	0
4	66276	13.21	0
4	66822	13.31	0
4	67368	13.41	0
4	67914	13.51	0
4	68460	13.61	0
4	69006	13.71	0
4	69552	13.81	0
4	70098	13.91	0
4	70652	14.01	0
4	71198	14.11	0
4	71744	14.21	0
4	72290	14.31	0
4	72836	14.41	0
4	73382	14.51	0
4	73928	14.61	0
4	74474	14.71	0
4	75020	14.81	0
4	75566	14.91	0
4	76120	15.01	0
4	76666	15.11	0
4	77212	15.21	0
4	77758	15.31	0
4	78304	15.41	0
4	78850	15.51	0
4	79396	15.61	0
4	79942	15.71	0
4	80488	15.81	0
4	81034	15.91	0
4	81588	16.01	0
4	82134	16.11	0
4	82680	16.21	0
4	83226	16.31	0
4	83772	16.41	0
4	84318	16.51	0
4	84864	16.61	0
4	85410	16.71	0
4	85956	16.81	0
4	86502	16.91	0
4	87056	17.01	0
4	87602	17.11	0
4	88148	17.21	0
4	88694	17.31	0
4	89240	17.41	0
4	89786	17.51	0
4	90332	17.61	0
4	90878	17.71	0
4	91424	17.81	0
4	91970	17.91	0
4	92524	18.01	0
4	93070	18.11	0
4	93616	18.21	0
4	94162	18.31	0
4	94708	18.41	0
4	95254	18.51	0
4	95800	18.61	0
4	96346	18.71	0
4	96892	18.81	0
4	97438	18.91	0
4	97992	19.01	0
4	98538	19.11	0
4	99084	19.21	0
4	99630	19.31	0
4	100176	19.41	0
4	100722	19.51	0
4	101268	19.61	0
4	101814	19.71	0
4	102360	19.81	0
4	102906	19.91	0
4	103460	20.01	0
4	104006	20.11	0
4	104552	20.21	0
4	105098	20.31	0
4	105644	20.41	0
4	106190	20.51	0
4	106736	20.61	0
4	107282	20.71	0
4	107828	20.81	0
4	108374	20.91	0
4	108928	21.01	0
4	109474	21.11	0
4	110020	21.21	0
4	110566	21.31	0
4	111112	21.41	0
4	111658	21.51	0
4	112204	21.61	0
4	112750	21.71	0
4	113296	21.81	0
4	113842	21.91	0
4	114396	22.01	0
4	114942	22.11	0
4	115488	22.21	0
4	116034	22.31	0
4	116580	22.41	0
4	117126	22.51	0
4	117672	22.61	0
4	118218	22.71	0
4	118764	22.81	0
4	119310	22.91	0
4	119864	23.01	0
4	120410	23.11	0
4	120956	23.21	0
4	121502	23.31	0
4	122048	23.41	0
4	122594	23.51	0
4	123140	23.61	0
4	123686	23.71	0
4	124232	23.81	0
4	124778	23.91	0
4	125332	24.01	0
4	125878	24.11	0
4	126424	24.21	0
4	126970	24.31	0
4	127516	24.41	0
4	128062	24.51	0
4	128608	24.61	0
4	129154	24.71	0
4	129700	24.81	0
4	130246	24.91	0
4	130800	25.01	0
4	131346	25.11	0
4	131892	25.21	0
4	132438	25.31	0
4	132984	25.41	0
4	133530	25.51	0
4	134076	25.61	0
4	134622	25.71	0
4	135168	25.81	0
4	135714	25.91	0
4	136268	26.01	0
4	136814	26.11	0
4	137360	26.21	0
4	137906	26.31	0
4	138452	26.41	0
4	138998	26.51	0
4	139544	26.61	0
4	140090	26.71	0
4	140636	26.81	0
4	141182	26.91	0
4	141736	27.01	0
4	142282	27.11	0
4	142828	27.21	0
4	143374	27.31	0
4	143920	27.41	0
4	144466	27.51	0
4	145012	27.61	0
4	145558	27.71	0
4	146104	27.81	0
4	146650	27.91	0
4	147204	28.01	0
4	147750	28.11	0
4	148296	28.21	0
4	148842	28.31	0
4	149388	28.41	0
4	149934	28.51	0
4	150480	28.61	0
4	151026	28.71	0
4	151572	28.81	0
4	152118	28.91	0
4	152672	29.01	0
4	153218	29.11	0
4	153764	29.21	0
4	154310	29.31	0
4	154856	29.41	0
4	155402	29.51	0
4	155948	29.61	0
4	156494	29.71	0
4	157040	29.81	0
4	157586	29.91	0
4	158140	30.01	0
4	158686	30.11	0
4	159232	30.21	0
4	159778	30.31	0
4	160324	30.41	0
4	160870	30.51	0
4	161416	30.61	0
4	161962	30.71	0
4	162508	30.81	0
4	163054	30.91	0
4	163608	31.01	0
4	164154	31.11	0
4	164700	31.21	0
4	165246	31.31	0
4	165792	31.41	0
4	166338	31.51	0
4	166884	31.61	0
4	167430	31.71	0
4	167976	31.81	0
4	168522	31.91	0
4	169076	32.01	0
4	169622	32.11	0
4	170168	32.21	0
4	170714	32.31	0
4	171260	32.41	0
4	171806	32.51	0
4	172352	32.61	0
4	172898	32.71	0
4	173444	32.81	0
4	173990	32.91	0
4	174544	33.01	0
4	175090	33.11	0
4	175636	33.21	0
4	176182	33.31	0
4	176728	33.41	0
4	177274	33.51	0
4	177820	33.61	0
4	178366	33.71	0
4	178912	33.81	0
4	179458	33.91	0
4	180012	34.01	0
4	180558	34.11	0
4	181104	34.21	0
4	181650	34.31	0
4	182196	34.41	0
4	182742	34.51	0
4	183288	34.61	0
4	183834	34.71	0
4	184380	34.81	0
4	184926	34.91	0
4	185480	35.01	0
4	186026	35.11	0
4	186572	35.21	0
4	187118	35.31	0
4	187664	35.41	0
4	188210	35.51	0
4	188756	35.61	0
4	189302	35.71	0
4	189848	35.81	0
4	190394	35.91	0
4	190948	36.01	0
4	191494	36.11	0
4	192040	36.21	0
4	192586	36.31	0
4	193132	36.41	0
4	193678	36.51	0
4	194224	36.61	0
4	194770	36.71	0
4	195316	36.81	0
4	195862	36.91	0
4	196416	37.01	0
4	196962	37.11	0
4	197508	37.21	0
4	198054	37.31	0
4	198600	37.41	0
4	199146	37.51	0
4	199692	37.61	0
4	200238	37.71	0
4	200784	37.81	0
4	201330	37.91	0
4	201884	38.01	0
4	202430	38.11	0
4	202976	38.21	0
4	203522	38.31	0
4	204068	38.41	0
4	204614	38.51	0
4	205160	38.61	0
4	205706	38.71	0
4	206252	38.81	0
4	206798	38.91	0
4	207352	39.01	0
4	207898	39.11	0
4	208444	39.21	0
4	208990	39.31	0
4	209536	39.41	0
4	210082	39.51	0
4	210628	39.61	0
4	211174	39.71	0
4	211720	39.81	0
4	212266	39.91	0
4	212820	40.01	0
4	213366	40.11	0
4	213912	40.21	0
4	214458	40.31	0
4	215004	40.41	0
4	215550	40.51	0
4	216096	40.61	0
4	216642	40.71	0
4	217188	40.81	0
4	217734	40.91	0
4	218288	41.01	0
4	218834	41.11	0
4	219380	41.21	0
4	219926	41.31	0
4	220472	41.41	0
4	221018	41.51	0
4	221564	41.61	0
4	222110	41.71	0
4	222656	41.81	0
4	223202	41.91	0
4	223756	42.01	0
4	224302	42.11	0
4	224848	42.21	0
4	225394	42.31	0
4	225940	42.41	0
4	226486	42.51	0
4	227032	42.61	0
4	227578	42.71	0
4	228124	42.81	0
4	228670	42.91	0
4	229224	43.01	0
4	229770	43.11	0
4	230316	43.21	0
4	230862	43.31	0
4	231408	43.41	0
4	231954	43.51	0
4	232500	43.61	0
4	233046	43.71	0
4	233592	43.81	0
4	234138	43.91	0
4	234692	44.01	0
4	235238	44.11	0
4	235784	44.21	0
4	236330	44.31	0
4	236876	44.41	0
4	237422	44.51	0
4	237968	44.61	0
4	238514	44.71	0
4	239060	44.81	0
4	239606	44.91	0
4	240160	45.01	0
4	240706	45.11	0
4	241252	45.21	0
4	241798	45.31	0
4	242344	45.41	0
4	242890	45.51	0
4	243436	45.61	0
4	243982	45.71	0
4	244528	45.81	0
4	245074	45.91	0
4	245628	46.01	0
4	246174	46.11	0
4	246720	46.21	0
4	247266	46.31	0
4	247812	46.41	0
4	248358	46.51	0
4	248904	46.61	0
4	249450	46.71	0
4	249996	46.81	0
4	250542	46.91	0
4	251096	47.01	0
4	251642	47.11	0
4	252188	47.21	0
4	252734	47.31	0
4	253280	47.41	0
4	253826	47.51	0
4	254372	47.61	0
4	254918	47.71	0
4	255464	47.81	0
4	256010	47.91	0
4	256564	48.01	0
4	257110	48.11	0
4	257656	48.21	0
4	258202	48.31	0
4	258748	48.41	0
4	259294	48.51	0
4	259840	48.61	0
4	260386	48.71	0
4	260932	48.81	0
4	261478	48.91	0
4	262032	49.01	0
4	262578	49.11	0
4	263124	49.21	0
4	263670	49.31	0
4	264216	49.41	0
4	264762	49.51	0
4	265308	49.61	0
4	265854	49.71	0
4	266400	49.81	0
4	266946	49.91	0
4	267500	50.01	0
4	268046	50.11	0
4	268592	50.21	0
4	269138	50.31	0
4	269684	50.41	0
4	270230	50.51	0
4	270776	50.61	0
4	271322	50.71	0
4	271868	50.81	0
4	272414	50.91	0
4	272968	51.01	0
4	273514	51.11	0
4	274060	51.21	0
4	274606	51.31	0
4	275152	51.41	0
4	275698	51.51	0
4	276244	51.61	0
4	276790	51.71	0
4	277336	51.81	0
4	277882	51.91	0
4	278436	52.01	0
4	278982	52.11	0
4	279528	52.21	0
4	280074	52.31	0
4	280620	52.41	0
4	281166	52.51	0
4	281712	52.61	0
4	282258	52.71	0
4	282804	52.81	0
4	283350	52.91	0
4	283904	53.01	0
4	284450	53.11	0
4	284996	53.21	0
4	285542	53.31	0
4	286088	53.41	0
4	286634	53.51	0
4	287180	53.61	0
4	287726	53.71	0
4	288272	53.81	0
4	288818	53.91	0
4	289372	54.01	0
4	289918	54.11	0
4	290464	54.21	0
4	291010	54.31	0
4	291556	54.41	0
4	292102	54.51	0
4	292648	54.61	0
4	293194	54.71	0
4	293740	54.81	0
4	294286	54.91	0
4	294840	55.01	0
4	295386	55.11	0
4	295932	55.21	0
4	296478	55.31	0
4	297024	55.41	0
4	297570	55.51	0
4	298116	55.61	0
4	298662	55.71	0
4	299208	55.81	0
4	299754	55.91	0
4	300308	56.01	0
4	300854	56.11	0
4	301400	56.21	0
4	301946	56.31	0
4	302492	56.41	0
4	303038	56.51	0
4	303584	56.61	0
4	304130	56.71	0
4	304676	56.81	0
4	305222	56.91	0
4	305776	57.01	0
4	306322	57.11	0
4	306868	57.21	0
4	307414	57.31	0
4	307960	57.41	0
4	308506	57.51	0
4	309052	57.61	0
4	309598	57.71	0
4	310144	57.81	0
4	310690	57.91	0
4	311244	58.01	0
4	311790	58.11	0
4	312336	58.21	0
4	312882	58.31	0
4	313428	58.41	0
4	313974	58.51	0
4	314520	58.61	0
4	315066	58.71	0
4	315612	58.81	0
4	316158	58.91	0
4	316712	59.01	0
4	317258	59.11	0
4	317804	59.21	0
4	318350	59.31	0
4	318896	59.41	0
4	319442	59.51	0
4	319988	59.61	0
4	320534	59.71	0
4	321080	59.81	0
4	321626	59.91	0
3	113	1.11	-0.000358191
3	659	1.21	-0.000681704
3	1205	1.31	-0.00093487
3	1751	1.41	-0.00112579
3	2297	1.51	-0.00126221
3	2843	1.61	-0.00135149
3	3389	1.71	-0.00140049
3	3935	1.81	-0.00141557
3	4481	1.91	-0.00140255
3	5035	2.01	-0.00136671
3	5581	2.11	-0.0013128
3	6127	2.21	-0.00124502
3	6673	2.31	-0.0011671
3	7219	2.41	-0.00108223
3	7765	2.51	-0.000993208
3	8311	2.61	-0.000902362
3	8857	2.71	-0.000811651
3	9403	2.81	-0.000722679
3	9949	2.91	-0.000636729
3	10503	3.01	-0.0005548
3	11049	3.11	-0.000477639
3	11595	3.21	-0.000405773
3	12141	3.31	-0.00033954
3	12687	3.41	-0.000279116
3	13233	3.51	-0.000224541
3	13779	3.61	-0.000175743
3	14325	3.71	-0.00013256
3	14871	3.81	-9.47571e-05
3	15417	3.91	-6.2046e-05
3	15971	4.01	-3.40986e-05
3	16517	4.11	-1.05605e-05
3	17063	4.21	8.93844e-06
3	17609	4.31	2.4774e-05
3	18155	4.41	3.73203e-05
3	18701	4.51	4.69433e-05
3	19247	4.61	5.39956e-05
3	19793	4.71	5.88124e-05
3	20339	4.81	6.1709e-05
3	20885	4.91	6.29785e-05
3	21440	5.01	-0.156801
3	21986	5.11	-1.56585
3	22532	5.21	-2.72175
3	23078	5.31	-3.67
3	23624	5.41	-4.44789
3	24170	5.51	-5.08603
3	24716	5.61	-5.60953
3	25262	5.71	-6.03898
3	25808	5.81	-6.39128
3	26354	5.91	-6.68029
3	26908	6.01	-6.91738
3	27454	6.11	-7.11187
3	28000	6.21	-7.27143
3	28546	6.31	-7.40232
3	29092	6.41	-7.50969
3	29638	6.51	-7.59778
3	30184	6.61	-7.67004
3	30730	6.71	-7.72932
3	31276	6.81	-7.77794
3	31822	6.91	-7.81784
3	32376	7.01	-7.85056
3	32922	7.11	-7.87741
3	33468	7.21	-7.89943
3	34014	7.31	-7.9175
3	34560	7.41	-7.93232
3	35106	7.51	-7.94448
3	35652	7.61	-7.95445
3	36198	7.71	-7.96264
3	36744	7.81	-7.96935
3	37290	7.91	-7.97486
3	37844	8.01	-7.97937
3	38390	8.11	-7.98308
3	38936	8.21	-7.98612
3	39482	8.31	-7.98861
3	40028	8.41	-7.99066
3	40574	8.51	-7.99234
3	41120	8.61	-7.99371
3	41666	8.71	-7.99484
3	42212	8.81	-7.99577
3	42758	8.91	-7.99653
3	43312	9.01	0
3	43858	9.11	0
3	44404	9.21	0
3	44950	9.31	0
3	45496	9.41	0
3	46042	9.51	0
3	46588	9.61	0
3	47134	9.71	0
3	47680	9.81	0
3	48226	9.91	0
3	48780	10.01	0
3	49326	10.11	0
3	49872	10.21	0
3	50418	10.31	0
3	50964	10.41	0
3	51510	10.51	0
3	52056	10.61	0
3	52602	10.71	0
3	53148	10.81	0
3	53694	10.91	0
3	54248	11.01	0
3	54794	11.11	0
3	55340	11.21	0
3	55886	11.31	0
3	56432	11.41	0
3	56978	11.51	0
3	57524	11.61	0
3	58070	11.71	0
3	58616	11.81	0
3	59162	11.91	0
3	59716	12.01	0
3	60262	12.11	0
3	60808	12.21	0
3	61354	12.31	0
3	61900	12.41	0
3	62446	12.51	0
3	62992	12.61	0
3	63538	12.71	0
3	64084	12.81	0
3	64630	12.91	0
3	65184	13.01	0
3	65730	13.11	0
3	66276	13.21	0
3	66822	13.31	0
3	67368	13.41	0
3	67914	13.51	0
3	68460	13.61	0
3	69006	13.71	0
3	69552	13.81	0
3	70098	13.91	0
3	70652	14.01	0
3	71198	14.11	0
3	71744	14.21	0
3	72290	14.31	0
3	72836	14.41	0
3	73382	14.51	0
3	73928	14.61	0
3	74474	14.71	0
3	75020	14.81	0
3	75566	14.91	0
3	76120	15.01	0
3	76666	15.11	0
3	77212	15.21	0
3	77758	15.31	0
3	78304	15.41	0
3	78850	15.51	0
3	79396	15.61	0
3	79942	15.71	0
3	80488	15.81	0
3	81034	15.91	0
3	81588	16.01	0
3	82134	16.11	0
3	82680	16.21	0
3	83226	16.31	0
3	83772	16.41	0
3	84318	16.51	0
3	84864	16.61	0
3	85410	16.71	0
3	85956	16.81	0
3	86502	16.91	0
3	87056	17.01	0
3	87602	17.11	0
3	88148	17.21	0
3	88694	17.31	0
3	89240	17.41	0
3	89786	17.51	0
3	90332	17.61	0
3	90878	17.71	0
3	91424	17.81	0
3	91970	17.91	0
3	92524	18.01	0
3	93070	18.11	0
3	93616	18.21	0
3	94162	18.31	0
3	94708	18.41	0
3	95254	18.51	0
3	95800	18.61	0
3	96346	18.71	0
3	96892	18.81	0
3	97438	18.91	0
3	97992	19.01	0
3	98538	19.11	0
3	99084	19.21	0
3	99630	19.31	0
3	100176	19.41	0
3	100722	19.51	0
3	101268	19.61	0
3	101814	19.71	0
3	102360	19.81	0
3	102906	19.91	0
3	103460	20.01	0
3	104006	20.11	0
3	104552	20.21	0
3	105098	20.31	0
3	105644	20.41	0
3	106190	20.51	0
3	106736	20.61	0
3	107282	20.71	0
3	107828	20.81	0
3	108374	20.91	0
3	108928	21.01	0
3	109474	21.11	0
3	110020	21.21	0
3	110566	21.31	0
3	111112	21.41	0
3	111658	21.51	0
3	112204	21.61	0
3	112750	21.71	0
3	113296	21.81	0
3	113842	21.91	0
3	114396	22.01	0
3	114942	22.11	0
3	115488	22.21	0
3	116034	22.31	0
3	116580	22.41	0
3	117126	22.51	0
3	117672	22.61	0
3	118218	22.71	0
3	118764	22.81	0
3	119310	22.91	0
3	119864	23.01	0
3	120410	23.11	0
3	120956	23.21	0
3	121502	23.31	0
3	122048	23.41	0
3	122594	23.51	0
3	123140	23.61	0
3	123686	23.71	0
3	124232	23.81	0
3	124778	23.91	0
3	125332	24.01	0
3	125878	24.11	0
3	126424	24.21	0
3	126970	24.31	0
3	127516	24.41	0
3	128062	24.51	0
3	128608	24.61	0
3	129154	24.71	0
3	129700	24.81	0
3	130246	24.91	0
3	130800	25.01	0
3	131346	25.11	0
3	131892	25.21	0
3	132438	25.31	0
3	132984	25.41	0
3	133530	25.51	0
3	134076	25.61	0
3	134622	25.71	0
3	135168	25.81	0
3	135714	25.91	0
3	136268	26.01	0
3	136814	26.11	0
3	137360	26.21	0
3	137906	26.31	0
3	138452	26.41	0
3	138998	26.51	0
3	139544	26.61	0
3	140090	26.71	0
3	140636	26.81	0
3	141182	26.91	0
3	141736	27.01	0
3	142282	27.11	0
3	142828	27.21	0
3	143374	27.31	0
3	143920	27.41	0
3	144466	27.51	0
3	145012	27.61	0
3	145558	27.71	0
3	146104	27.81	0
3	146650	27.91	0
3	147204	28.01	0
3	147750	28.11	0
3	148296	28.21	0
3	148842	28.31	0
3	149388	28.41	0
3	149934	28.51	0
3	150480	28.61	0
3	151026	28.71	0
3	151572	28.81	0
3	152118	28.91	0
3	152672	29.01	0
3	153218	29.11	0
3	153764	29.21	0
3	154310	29.31	0
3	154856	29.41	0
3	155402	29.51	0
3	155948	29.61	0
3	156494	29.71	0
3	157040	29.81	0
3	157586	29.91	0
3	158140	30.01	0
3	158686	30.11	0
3	159232	30.21	0
3	159778	30.31	0
3	160324	30.41	0
3	160870	30.51	0
3	161416	30.61	0
3	161962	30.71	0
3	162508	30.81	0
3	163054	30.91	0
3	163608	31.01	0
3	164154	31.11	0
3	164700	31.21	0
3	165246	31.31	0
3	165792	31.41	0
3	166338	31.51	0
3	166884	31.61	0
3	167430	31.71	0
3	167976	31.81	0
3	168522	31.91	0
3	169076	32.01	0
3	169622	32.11	0
3	170168	32.21	0
3	170714	32.31	0
3	171260	32.41	0
3	171806	32.51	0
3	172352	32.61	0
3	172898	32.71	0
3	173444	32.81	0
3	173990	32.91	0
3	174544	33.01	0
3	175090	33.11	0
3	175636	33.21	0
3	176182	33.31	0
3	176728	33.41	0
3	177274	33.51	0
3	177820	33.61	0
3	178366	33.71	0
3	178912	33.81	0
3	179458	33.91	0
3	180012	34.01	0
3	180558	34.11	0
3	181104	34.21	0
3	181650	34.31	0
3	182196	34.41	0
3	182742	34.51	0
3	183288	34.61	0
3	183834	34.71	0
3	184380	34.81	0
3	184926	34.91	0
3	185480	35.01	0
3	186026	35.11	0
3	186572	35.21	0
3	187118	35.31	0
3	187664	35.41	0
3	188210	35.51	0
3	188756	35.61	0
3	189302	35.71	0
3	189848	35.81	0
3	190394	35.91	0
3	190948	36.01	0
3	191494	36.11	0
3	192040	36.21	0
3	192586	36.31	0
3	193132	36.41	0
3	193678	36.51	0
3	194224	36.61	0
3	194770	36.71	0
3	195316	36.81	0
3	195862	36.91	0
3	196416	37.01	0
3	196962	37.11	0
3	197508	37.21	0
3	198054	37.31	0
3	198600	37.41	0
3	199146	37.51	0
3	199692	37.61	0
3	200238	37.71	0
3	200784	37.81	0
3	201330	37.91	0
3	201884	38.01	0
3	202430	38.11	0
3	202976	38.21	0
3	203522	38.31	0
3	204068	38.41	0
3	204614	38.51	0
3	205160	38.61	0
3	205706	38.71	0
3	206252	38.81	0
3	206798	38.91	0
3	207352	39.01	0
3	207898	39.11	0
3	208444	39.21	0
3	208990	39.31	0
3	209536	39.41	0
3	210082	39.51	0
3	210628	39.61	0
3	211174	39.71	0
3	211720	39.81	0
3	212266	39.91	0
3	212820	40.01	0
3	213366	40.11	0
3	213912	40.21	0
3	214458	40.31	0
3	215004	40.41	0
3	215550	40.51	0
3	216096	40.61	0
3	216642	40.71	0
3	217188	40.81	0
3	217734	40.91	0
3	218288	41.01	0
3	218834	41.11	0
3	219380	41.21	0
3	219926	41.31	0
3	220472	41.41	0
3	221018	41.51	0
3	221564	41.61	0
3	222110	41.71	0
3	222656	41.81	0
3	223202	41.91	0
3	223756	42.01	0
3	224302	42.11	0
3	224848	42.21	0
3	225394	42.31	0
3	225940	42.41	0
3	226486	42.51	0
3	227032	42.61	0
3	227578	42.71	0
3	228124	42.81	0
3	228670	42.91	0
3	229224	43.01	0
3	229770	43.11	0
3	230316	43.21	0
3	230862	43.31	0
3	231408	43.41	0
3	231954	43.51	0
3	232500	43.61	0
3	233046	43.71	0
3	233592	43.81	0
3	234138	43.91	0
3	234692	44.01	0
3	235238	44.11	0
3	235784	44.21	0
3	236330	44.31	0
3	236876	44.41	0
3	237422	44.51	0
3	237968	44.61	0
3	238514	44.71	0
3	239060	44.81	0
3	239606	44.91	0
3	240160	45.01	0
3	240706	45.11	0
3	241252	45.21	0
3	241798	45.31	0
3	242344	45.41	0
3	242890	45.51	0
3	243436	45.61	0
3	243982	45.71	0
3	244528	45.81	0
3	245074	45.91	0
3	245628	46.01	0
3	246174	46.11	0
3	246720	46.21	0
3	247266	46.31	0
3	247812	46.41	0
3	248358	46.51	0
3	248904	46.61	0
3	249450	46.71	0
3	249996	46.81	0
3	250542	46.91	0
3	251096	47.01	0
3	251642	47.11	0
3	252188	47.21	0
3	252734	47.31	0
3	253280	47.41	0
3	253826	47.51	0
3	254372	47.61	0
3	254918	47.71	0
3	255464	47.81	0
3	256010	47.91	0
3	256564	48.01	0
3	257110	48.11	0
3	257656	48.21	0
3	258202	48.31	0
3	258748	48.41	0
3	259294	48.51	0
3	259840	48.61	0
3	260386	48.71	0
3	260932	48.81	0
3	261478	48.91	0
3	262032	49.01	0
3	262578	49.11	0
3	263124	49.21	0
3	263670	49.31	0
3	264216	49.41	0
3	264762	49.51	0
3	265308	49.61	0
3	265854	49.71	0
3	266400	49.81	0
3	266946	49.91	0
3	267500	50.01	0
3	268046	50.11	0
3	268592	50.21	0
3	269138	50.31	0
3	269684	50.41	0
3	270230	50.51	0
3	270776	50.61	0
3	271322	50.71	0
3	271868	50.81	0
3	272414	50.91	0
3	272968	51.01	0
3	273514	51.11	0
3	274060	51.21	0
3	274606	51.31	0
3	275152	51.41	0
3	275698	51.51	0
3	276244	51.61	0
3	276790	51.71	0
3	277336	51.81	0
3	277882	51.91	0
3	278436	52.01	0
3	278982	52.11	0
3	279528	52.21	0
3	280074	52.31	0
3	280620	52.41	0
3	281166	52.51	0
3	281712	52.61	0
3	282258	52.71	0
3	282804	52.81	0
3	283350	52.91	0
3	283904	53.01	0
3	284450	53.11	0
3	284996	53.21	0
3	285542	53.31	0
3	286088	53.41	0
3	286634	53.51	0
3	287180	53.61	0
3	287726	53.71	0
3	288272	53.81	0
3	288818	53.91	0
3	289372	54.01	0
3	289918	54.11	0
3	290464	54.21	0
3	291010	54.31	0
3	291556	54.41	0
3	292102	54.51	0
3	292648	54.61	0
3	293194	54.71	0
3	293740	54.81	0
3	294286	54.91	0
3	294840	55.01	0
3	295386	55.11	0
3	295932	55.21	0
3	296478	55.31	0
3	297024	55.41	0
3	297570	55.51	0
3	298116	55.61	0
3	298662	55.71	0
3	299208	55.81	0
3	299754	55.91	0
3	300308	56.01	0
3	300854	56.11	0
3	301400	56.21	0
3	301946	56.31	0
3	302492	56.41	0
3	303038	56.51	0
3	303584	56.61	0
3	304130	56.71	0
3	304676	56.81	0
3	305222	56.91	0
3	305776	57.01	0
3	306322	57.11	0
3	306868	57.21	0
3	307414	57.31	0
3	307960	57.41	0
3	308506	57.51	0
3	309052	57.61	0
3	309598	57.71	0
3	310144	57.81	0
3	310690	57.91	0
3	311244	58.01	0
3	311790	58.11	0
3	312336	58.21	0
3	312882	58.31	0
3	313428	58.41	0
3	313974	58.51	0
3	314520	58.61	0
3	315066	58.71	0
3	315612	58.81	0
3	316158	58.91	0
3	316712	59.01	0
3	317258	59.11	0
3	317804	59.21	0
3	318350	59.31	0
3	318896	59.41	0
3	319442	59.51	0
3	319988	59.61	0
3	320534	59.71	0
3	321080	59.81	0
3	321626	59.91	0
7	113	1.11	242.45
7	659	1.21	242.45
7	1205	1.31	242.45
7	1751	1.41	242.45
7	2297	1.51	242.45
7	2843	1.61	242.45
7	3389	1.71	242.45
7	3935	1.81	242.45
7	4481	1.91	242.45
7	5035	2.01	242.45
7	5581	2.11	242.45
7	6127	2.21	242.45
7	6673	2.31	242.45
7	7219	2.41	242.45
7	7765	2.51	242.45
7	8311	2.61	242.45
7	8857	2.71	242.45
7	9403	2.81	242.45
7	9949	2.91	242.45
7	10503	3.01	242.45
7	11049	3.11	242.45
7	11595	3.21	242.45
7	12141	3.31	242.45
7	12687	3.41	242.45
7	13233	3.51	242.45
7	13779	3.61	242.45
7	14325	3.71	242.45
7	14871	3.81	242.45
7	15417	3.91	242.45
7	15971	4.01	242.45
7	16517	4.11	242.45
7	17063	4.21	242.45
7	17609	4.31	242.45
7	18155	4.41	242.45
7	18701	4.51	242.45
7	19247	4.61	242.45
7	19793	4.71	242.45
7	20339	4.81	242.45
7	20885	4.91	242.45
7	21440	5.01	242.45
7	21986	5.11	242.45
7	22532	5.21	242.45
7	23078	5.31	242.45
7	23624	5.41	242.45
7	24170	5.51	242.45
7	24716	5.61	242.45
7	25262	5.71	242.45
7	25808	5.81	242.45
7	26354	5.91	242.45
7	26908	6.01	242.45
7	27454	6.11	242.45
7	28000	6.21	242.45
7	28546	6.31	242.45
7	29092	6.41	242.45
7	29638	6.51	242.45
7	30184	6.61	242.45
7	30730	6.71	242.45
7	31276	6.81	242.45
7	31822	6.91	242.45
7	32376	7.01	242.45
7	32922	7.11	242.45
7	33468	7.21	242.45
7	34014	7.31	242.45
7	34560	7.41	242.45
7	35106	7.51	242.45
7	35652	7.61	242.45
7	36198	7.71	242.45
7	36744	7.81	242.45
7	37290	7.91	242.45
7	37844	8.01	242.45
7	38390	8.11	242.45
7	38936	8.21	242.45
7	39482	8.31	242.45
7	40028	8.41	242.45
7	40574	8.51	242.45
7	41120	8.61	242.45
7	41666	8.71	242.45
7	42212	8.81	242.45
7	42758	8.91	242.45
7	43312	9.01	242.45
7	43858	9.11	242.45
7	44404	9.21	242.45
7	44950	9.31	242.45
7	45496	9.41	242.45
7	46042	9.51	242.45
7	46588	9.61	242.45
7	47134	9.71	242.45
7	47680	9.81	242.45
7	48226	9.91	242.45
7	48780	10.01	242.45
7	49326	10.11	242.45
7	49872	10.21	242.45
7	50418	10.31	242.45
7	50964	10.41	242.45
7	51510	10.51	242.45
7	52056	10.61	242.45
7	52602	10.71	242.45
7	53148	10.81	242.45
7	53694	10.91	242.45
7	54248	11.01	242.45
7	54794	11.11	242.45
7	55340	11.21	242.45
7	55886	11.31	242.45
7	56432	11.41	242.45
7	56978	11.51	242.45
7	57524	11.61	242.45
7	58070	11.71	242.45
7	58616	11.81	242.45
7	59162	11.91	242.45
7	59716	12.01	242.45
7	60262	12.11	242.45
7	60808	12.21	242.45
7	61354	12.31	242.45
7	61900	12.41	242.45
7	62446	12.51	242.45
7	62992	12.61	242.45
7	63538	12.71	242.45
7	64084	12.81	242.45
7	64630	12.91	242.45
7	65184	13.01	242.45
7	65730	13.11	242.45
7	66276	13.21	242.45
7	66822	13.31	242.45
7	67368	13.41	242.45
7	67914	13.51	242.45
7	68460	13.61	242.45
7	69006	13.71	242.45
7	69552	13.81	242.45
7	70098	13.91	242.45
7	70652	14.01	242.45
7	71198	14.11	242.45
7	71744	14.21	242.45
7	72290	14.31	242.45
7	72836	14.41	242.45
7	73382	14.51	242.45
7	73928	14.61	242.45
7	74474	14.71	242.45
7	75020	14.81	242.45
7	75566	14.91	242.45
7	76120	15.01	242.45
7	76666	15.11	242.45
7	77212	15.21	242.45
7	77758	15.31	242.45
7	78304	15.41	242.45
7	78850	15.51	242.45
7	79396	15.61	242.45
7	79942	15.71	242.45
7	80488	15.81	242.45
7	81034	15.91	242.45
7	81588	16.01	242.45
7	82134	16.11	242.45
7	82680	16.21	242.45
7	83226	16.31	242.45
7	83772	16.41	242.45
7	84318	16.51	242.45
7	84864	16.61	242.45
7	85410	16.71	242.45
7	85956	16.81	242.45
7	86502	16.91	242.45
7	87056	17.01	242.45
7	87602	17.11	242.45
7	88148	17.21	242.45
7	88694	17.31	242.45
7	89240	17.41	242.45
7	89786	17.51	242.45
7	90332	17.61	242.45
7	90878	17.71	242.45
7	91424	17.81	242.45
7	91970	17.91	242.45
7	92524	18.01	242.45
7	93070	18.11	242.45
7	93616	18.21	242.45
7	94162	18.31	242.45
7	94708	18.41	242.45
7	95254	18.51	242.45
7	95800	18.61	242.45
7	96346	18.71	242.45
7	96892	18.81	242.45
7	97438	18.91	242.45
7	97992	19.01	242.45
7	98538	19.11	242.45
7	99084	19.21	242.45
7	99630	19.31	242.45
7	100176	19.41	242.45
7	100722	19.51	242.45
7	101268	19.61	242.45
7	101814	19.71	242.45
7	102360	19.81	242.45
7	102906	19.91	242.45
7	103460	20.01	242.45
7	104006	20.11	242.45
7	104552	20.21	242.45
7	105098	20.31	242.45
7	105644	20.41	242.45
7	106190	20.51	242.45
7	106736	20.61	242.45
7	107282	20.71	242.45
7	107828	20.81	242.45
7	108374	20.91	242.45
7	108928	21.01	242.45
7	109474	21.11	242.45
7	110020	21.21	242.45
7	110566	21.31	242.45
7	111112	21.41	242.45
7	111658	21.51	242.45
7	112204	21.61	242.45
7	112750	21.71	242.45
7	113296	21.81	242.45
7	113842	21.91	242.45
7	114396	22.01	242.45
7	114942	22.11	242.45
7	115488	22.21	242.45
7	116034	22.31	242.45
7	116580	22.41	242.45
7	117126	22.51	242.45
7	117672	22.61	242.45
7	118218	22.71	242.45
7	118764	22.81	242.45
7	119310	22.91	242.45
7	119864	23.01	242.45
7	120410	23.11	242.45
7	120956	23.21	242.45
7	121502	23.31	242.45
7	122048	23.41	242.45
7	122594	23.51	242.45
7	123140	23.61	242.45
7	123686	23.71	242.45
7	124232	23.81	242.45
7	124778	23.91	242.45
7	125332	24.01	242.45
7	125878	24.11	242.45
7	126424	24.21	242.45
7	126970	24.31	242.45
7	127516	24.41	242.45
7	128062	24.51	242.45
7	128608	24.61	242.45
7	129154	24.71	242.45
7	129700	24.81	242.45
7	130246	24.91	242.45
7	130800	25.01	242.45
7	131346	25.11	242.45
7	131892	25.21	242.45
7	132438	25.31	242.45
7	132984	25.41	242.45
7	133530	25.51	242.45
7	134076	25.61	242.45
7	134622	25.71	242.45
7	135168	25.81	242.45
7	135714	25.91	242.45
7	136268	26.01	242.45
7	136814	26.11	242.45
7	137360	26.21	242.45
7	137906	26.31	242.45
7	138452	26.41	242.45
7	138998	26.51	242.45
7	139544	26.61	242.45
7	140090	26.71	242.45
7	140636	26.81	242.45
7	141182	26.91	242.45
7	141736	27.01	242.45
7	142282	27.11	242.45
7	142828	27.21	242.45
7	143374	27.31	242.45
7	143920	27.41	242.45
7	144466	27.51	242.45
7	145012	27.61	242.45
7	145558	27.71	242.45
7	146104	27.81	242.45
7	146650	27.91	242.45
7	147204	28.01	242.45
7	147750	28.11	242.45
7	148296	28.21	242.45
7	148842	28.31	242.45
7	149388	28.41	242.45
7	149934	28.51	242.45
7	150480	28.61	242.45
7	151026	28.71	242.45
7	151572	28.81	242.45
7	152118	28.91	242.45
7	152672	29.01	242.45
7	153218	29.11	242.45
7	153764	29.21	242.45
7	154310	29.31	242.45
7	154856	29.41	242.45
7	155402	29.51	242.45
7	155948	29.61	242.45
7	156494	29.71	242.45
7	157040	29.81	242.45
7	157586	29.91	242.45
7	158140	30.01	242.45
7	158686	30.11	242.45
7	159232	30.21	242.45
7	159778	30.31	242.45
7	160324	30.41	242.45
7	160870	30.51	242.45
7	161416	30.61	242.45
7	161962	30.71	242.45
7	162508	30.81	242.45
7	163054	30.91	242.45
7	163608	31.01	242.45
7	164154	31.11	242.45
7	164700	31.21	242.45
7	165246	31.31	242.45
7	165792	31.41	242.45
7	166338	31.51	242.45
7	166884	31.61	242.45
7	167430	31.71	242.45
7	167976	31.81	242.45
7	168522	31.91	242.45
7	169076	32.01	242.45
7	169622	32.11	242.45
7	170168	32.21	242.45
7	170714	32.31	242.45
7	171260	32.41	242.45
7	171806	32.51	242.45
7	172352	32.61	242.45
7	172898	32.71	242.45
7	173444	32.81	242.45
7	173990	32.91	242.45
7	174544	33.01	242.45
7	175090	33.11	242.45
7	175636	33.21	242.45
7	176182	33.31	242.45
7	176728	33.41	242.45
7	177274	33.51	242.45
7	177820	33.61	242.45
7	178366	33.71	242.45
7	178912	33.81	242.45
7	179458	33.91	242.45
7	180012	34.01	242.45
7	180558	34.11	242.45
7	181104	34.21	242.45
7	181650	34.31	242.45
7	182196	34.41	242.45
7	182742	34.51	242.45
7	183288	34.61	242.45
7	183834	34.71	242.45
7	184380	34.81	242.45
7	184926	34.91	242.45
7	185480	35.01	242.45
7	186026	35.11	242.45
7	186572	35.21	242.45
7	187118	35.31	242.45
7	187664	35.41	242.45
7	188210	35.51	242.45
7	188756	35.61	242.45
7	189302	35.71	242.45
7	189848	35.81	242.45
7	190394	35.91	242.45
7	190948	36.01	242.45
7	191494	36.11	242.45
7	192040	36.21	242.45
7	192586	36.31	242.45
7	193132	36.41	242.45
7	193678	36.51	242.45
7	194224	36.61	242.45
7	194770	36.71	242.45
7	195316	36.81	242.45
7	195862	36.91	242.45
7	196416	37.01	242.45
7	196962	37.11	242.45
7	197508	37.21	242.45
7	198054	37.31	242.45
7	198600	37.41	242.45
7	199146	37.51	242.45
7	199692	37.61	242.45
7	200238	37.71	242.45
7	200784	37.81	242.45
7	201330	37.91	242.45
7	201884	38.01	242.45
7	202430	38.11	242.45
7	202976	38.21	242.45
7	203522	38.31	242.45
7	204068	38.41	242.45
7	204614	38.51	242.45
7	205160	38.61	242.45
7	205706	38.71	242.45
7	206252	38.81	242.45
7	206798	38.91	242.45
7	207352	39.01	242.45
7	207898	39.11	242.45
7	208444	39.21	242.45
7	208990	39.31	242.45
7	209536	39.41	242.45
7	210082	39.51	242.45
7	210628	39.61	242.45
7	211174	39.71	242.45
7	211720	39.81	242.45
7	212266	39.91	242.45
7	212820	40.01	242.45
7	213366	40.11	242.45
7	213912	40.21	242.45
7	214458	40.31	242.45
7	215004	40.41	242.45
7	215550	40.51	242.45
7	216096	40.61	242.45
7	216642	40.71	242.45
7	217188	40.81	242.45
7	217734	40.91	242.45
7	218288	41.01	242.45
7	218834	41.11	242.45
7	219380	41.21	242.45
7	219926	41.31	242.45
7	220472	41.41	242.45
7	221018	41.51	242.45
7	221564	41.61	242.45
7	222110	41.71	242.45
7	222656	41.81	242.45
7	223202	41.91	242.45
7	223756	42.01	242.45
7	224302	42.11	242.45
7	224848	42.21	242.45
7	225394	42.31	242.45
7	225940	42.41	242.45
7	226486	42.51	242.45
7	227032	42.61	242.45
7	227578	42.71	242.45
7	228124	42.81	242.45
7	228670	42.91	242.45
7	229224	43.01	242.45
7	229770	43.11	242.45
7	230316	43.21	242.45
7	230862	43.31	242.45
7	231408	43.41	242.45
7	231954	43.51	242.45
7	232500	43.61	242.45
7	233046	43.71	242.45
7	233592	43.81	242.45
7	234138	43.91	242.45
7	234692	44.01	242.45
7	235238	44.11	242.45
7	235784	44.21	242.45
7	236330	44.31	242.45
7	236876	44.41	242.45
7	237422	44.51	242.45
7	237968	44.61	242.45
7	238514	44.71	242.45
7	239060	44.81	242.45
7	239606	44.91	242.45
7	240160	45.01	242.45
7	240706	45.11	242.45
7	241252	45.21	242.45
7	241798	45.31	242.45
7	242344	45.41	242.45
7	242890	45.51	242.45
7	243436	45.61	242.45
7	243982	45.71	242.45
7	244528	45.81	242.45
7	245074	45.91	242.45
7	245628	46.01	242.45
7	246174	46.11	242.45
7	246720	46.21	242.45
7	247266	46.31	242.45
7	247812	46.41	242.45
7	248358	46.51	242.45
7	248904	46.61	242.45
7	249450	46.71	242.45
7	249996	46.81	242.45
7	250542	46.91	242.45
7	251096	47.01	242.45
7	251642	47.11	242.45
7	252188	47.21	242.45
7	252734	47.31	242.45
7	253280	47.41	242.45
7	253826	47.51	242.45
7	254372	47.61	242.45
7	254918	47.71	242.45
7	255464	47.81	242.45
7	256010	47.91	242.45
7	256564	48.01	242.45
7	257110	48.11	242.45
7	257656	48.21	242.45
7	258202	48.31	242.45
7	258748	48.41	242.45
7	259294	48.51	242.45
7	259840	48.61	242.45
7	260386	48.71	242.45
7	260932	48.81	242.45
7	261478	48.91	242.45
7	262032	49.01	242.45
7	262578	49.11	242.45
7	263124	49.21	242.45
7	263670	49.31	242.45
7	264216	49.41	242.45
7	264762	49.51	242.45
7	265308	49.61	242.45
7	265854	49.71	242.45
7	266400	49.81	242.45
7	266946	49.91	242.45
7	267500	50.01	242.45
7	268046	50.11	242.45
7	268592	50.21	242.45
7	269138	50.31	242.45
7	269684	50.41	242.45
7	270230	50.51	242.45
7	270776	50.61	242.45
7	271322	50.71	242.45
7	271868	50.81	242.45
7	272414	50.91	242.45
7	272968	51.01	242.45
7	273514	51.11	242.45
7	274060	51.21	242.45
7	274606	51.31	242.45
7	275152	51.41	242.45
7	275698	51.51	242.45
7	276244	51.61	242.45
7	276790	51.71	242.45
7	277336	51.81	242.45
7	277882	51.91	242.45
7	278436	52.01	242.45
7	278982	52.11	242.45
7	279528	52.21	242.45
7	280074	52.31	242.45
7	280620	52.41	242.45
7	281166	52.51	242.45
7	281712	52.61	242.45
7	282258	52.71	242.45
7	282804	52.81	242.45
7	283350	52.91	242.45
7	283904	53.01	242.45
7	284450	53.11	242.45
7	284996	53.21	242.45
7	285542	53.31	242.45
7	286088	53.41	242.45
7	286634	53.51	242.45
7	287180	53.61	242.45
7	287726	53.71	242.45
7	288272	53.81	242.45
7	288818	53.91	242.45
7	289372	54.01	242.45
7	289918	54.11	242.45
7	290464	54.21	242.45
7	291010	54.31	242.45
7	291556	54.41	242.45
7	292102	54.51	242.45
7	292648	54.61	242.45
7	293194	54.71	242.45
7	293740	54.81	242.45
7	294286	54.91	242.45
7	294840	55.01	242.45
7	295386	55.11	242.45
7	295932	55.21	242.45
7	296478	55.31	242.45
7	297024	55.41	242.45
7	297570	55.51	242.45
7	298116	55.61	242.45
7	298662	55.71	242.45
7	299208	55.81	242.45
7	299754	55.91	242.45
7	300308	56.01	242.45
7	300854	56.11	242.45
7	301400	56.21	242.45
7	301946	56.31	242.45
7	302492	56.41	242.45
7	303038	56.51	242.45
7	303584	56.61	242.45
7	304130	56.71	242.45
7	304676	56.81	242.45
7	305222	56.91	242.45
7	305776	57.01	242.45
7	306322	57.11	242.45
7	306868	57.21	242.45
7	307414	57.31	242.45
7	307960	57.41	242.45
7	308506	57.51	242.45
7	309052	57.61	242.45
7	309598	57.71	242.45
7	310144	57.81	242.45
7	310690	57.91	242.45
7	311244	58.01	242.45
7	311790	58.11	242.45
7	312336	58.21	242.45
7	312882	58.31	242.45
7	313428	58.41	242.45
7	313974	58.51	242.45
7	314520	58.61	242.45
7	315066	58.71	242.45
7	315612	58.81	242.45
7	316158	58.91	242.45
7	316712	59.01	242.45
7	317258	59.11	242.45
7	317804	59.21	242.45
7	318350	59.31	242.45
7	318896	59.41	242.45
7	319442	59.51	242.45
7	319988	59.61	242.45
7	320534	59.71	242.45
7	321080	59.81	242.45
7	321626	59.91	242.45
6	113	1.11	73.9402
6	659	1.21	76.7182
6	1205	1.31	79.4962
6	1751	1.41	82.2742
6	2297	1.51	85.0521
6	2843	1.61	87.8301
6	3389	1.71	90.608
6	3935	1.81	93.386
6	4481	1.91	96.1639
6	5035	2.01	98.9418
6	5581	2.11	101.72
6	6127	2.21	104.498
6	6673	2.31	107.275
6	7219	2.41	110.053
6	7765	2.51	112.831
6	8311	2.61	115.609
6	8857	2.71	118.387
6	9403	2.81	121.165
6	9949	2.91	123.942
6	10503	3.01	126.72
6	11049	3.11	129.498
6	11595	3.21	132.276
6	12141	3.31	135.054
6	12687	3.41	137.831
6	13233	3.51	140.609
6	13779	3.61	143.387
6	14325	3.71	146.165
6	14871	3.81	148.942
6	15417	3.91	151.72
6	15971	4.01	154.498
6	16517	4.11	157.276
6	17063	4.21	160.053
6	17609	4.31	162.831
6	18155	4.41	165.609
6	18701	4.51	168.387
6	19247	4.61	171.165
6	19793	4.71	173.942
6	20339	4.81	176.72
6	20885	4.91	179.498
6	21440	5.01	182.276
6	21986	5.11	185.05
6	22532	5.21	187.808
6	23078	5.31	190.538
6	23624	5.41	193.231
6	24170	5.51	195.88
6	24716	5.61	198.477
6	25262	5.71	201.019
6	25808	5.81	203.5
6	26354	5.91	205.916
6	26908	6.01	208.266
6	27454	6.11	210.547
6	28000	6.21	212.757
6	28546	6.31	214.893
6	29092	6.41	216.956
6	29638	6.51	218.943
6	30184	6.61	220.855
6	30730	6.71	222.69
6	31276	6.81	224.447
6	31822	6.91	226.127
6	32376	7.01	227.728
6	32922	7.11	229.251
6	33468	7.21	230.696
6	34014	7.31	232.061
6	34560	7.41	233.347
6	35106	7.51	234.554
6	35652	7.61	235.681
6	36198	7.71	236.729
6	36744	7.81	237.697
6	37290	7.91	238.585
6	37844	8.01	239.394
6	38390	8.11	240.123
6	38936	8.21	240.772
6	39482	8.31	241.341
6	40028	8.41	241.83
6	40574	8.51	242.239
6	41120	8.61	242.569
6	41666	8.71	242.818
6	42212	8.81	242.988
6	42758	8.91	243.077
6	43312	9.01	243.093
6	43858	9.11	243.093
6	44404	9.21	243.093
6	44950	9.31	243.093
6	45496	9.41	243.093
6	46042	9.51	243.093
6	46588	9.61	243.093
6	47134	9.71	243.093
6	47680	9.81	243.093
6	48226	9.91	243.093
6	48780	10.01	243.093
6	49326	10.11	243.093
6	49872	10.21	243.093
6	50418	10.31	243.093
6	50964	10.41	243.093
6	51510	10.51	243.093
6	52056	10.61	243.093
6	52602	10.71	243.093
6	53148	10.81	243.093
6	53694	10.91	243.093
6	54248	11.01	243.093
6	54794	11.11	243.093
6	55340	11.21	243.093
6	55886	11.31	243.093
6	56432	11.41	243.093
6	56978	11.51	243.093
6	57524	11.61	243.093
6	58070	11.71	243.093
6	58616	11.81	243.093
6	59162	11.91	243.093
6	59716	12.01	243.093
6	60262	12.11	243.093
6	60808	12.21	243.093
6	61354	12.31	243.093
6	61900	12.41	243.093
6	62446	12.51	243.093
6	62992	12.61	243.093
6	63538	12.71	243.093
6	64084	12.81	243.093
6	64630	12.91	243.093
6	65184	13.01	243.093
6	65730	13.11	243.093
6	66276	13.21	243.093
6	66822	13.31	243.093
6	67368	13.41	243.093
6	67914	13.51	243.093
6	68460	13.61	243.093
6	69006	13.71	243.093
6	69552	13.81	243.093
6	70098	13.91	243.093
6	70652	14.01	243.093
6	71198	14.11	243.093
6	71744	14.21	243.093
6	72290	14.31	243.093
6	72836	14.41	243.093
6	73382	14.51	243.093
6	73928	14.61	243.093
6	74474	14.71	243.093
6	75020	14.81	243.093
6	75566	14.91	243.093
6	76120	15.01	243.093
6	76666	15.11	243.093
6	77212	15.21	243.093
6	77758	15.31	243.093
6	78304	15.41	243.093
6	78850	15.51	243.093
6	79396	15.61	243.093
6	79942	15.71	243.093
6	80488	15.81	243.093
6	81034	15.91	243.093
6	81588	16.01	243.093
6	82134	16.11	243.093
6	82680	16.21	243.093
6	83226	16.31	243.093
6	83772	16.41	243.093
6	84318	16.51	243.093
6	84864	16.61	243.093
6	85410	16.71	243.093
6	85956	16.81	243.093
6	86502	16.91	243.093
6	87056	17.01	243.093
6	87602	17.11	243.093
6	88148	17.21	243.093
6	88694	17.31	243.093
6	89240	17.41	243.093
6	89786	17.51	243.093
6	90332	17.61	243.093
6	90878	17.71	243.093
6	91424	17.81	243.093
6	91970	17.91	243.093
6	92524	18.01	243.093
6	93070	18.11	243.093
6	93616	18.21	243.093
6	94162	18.31	243.093
6	94708	18.41	243.093
6	95254	18.51	243.093
6	95800	18.61	243.093
6	96346	18.71	243.093
6	96892	18.81	243.093
6	97438	18.91	243.093
6	97992	19.01	243.093
6	98538	19.11	243.093
6	99084	19.21	243.093
6	99630	19.31	243.093
6	100176	19.41	243.093
6	100722	19.51	243.093
6	101268	19.61	243.093
6	101814	19.71	243.093
6	102360	19.81	243.093
6	102906	19.91	243.093
6	103460	20.01	243.093
6	104006	20.11	243.093
6	104552	20.21	243.093
6	105098	20.31	243.093
6	105644	20.41	243.093
6	106190	20.51	243.093
6	106736	20.61	243.093
6	107282	20.71	243.093
6	107828	20.81	243.093
6	108374	20.91	243.093
6	108928	21.01	243.093
6	109474	21.11	243.093
6	110020	21.21	243.093
6	110566	21.31	243.093
6	111112	21.41	243.093
6	111658	21.51	243.093
6	112204	21.61	243.093
6	112750	21.71	243.093
6	113296	21.81	243.093
6	113842	21.91	243.093
6	114396	22.01	243.093
6	114942	22.11	243.093
6	115488	22.21	243.093
6	116034	22.31	243.093
6	116580	22.41	243.093
6	117126	22.51	243.093
6	117672	22.61	243.093
6	118218	22.71	243.093
6	118764	22.81	243.093
6	119310	22.91	243.093
6	119864	23.01	243.093
6	120410	23.11	243.093
6	120956	23.21	243.093
6	121502	23.31	243.093
6	122048	23.41	243.093
6	122594	23.51	243.093
6	123140	23.61	243.093
6	123686	23.71	243.093
6	124232	23.81	243.093
6	124778	23.91	243.093
6	125332	24.01	243.093
6	125878	24.11	243.093
6	126424	24.21	243.093
6	126970	24.31	243.093
6	127516	24.41	243.093
6	128062	24.51	243.093
6	128608	24.61	243.093
6	129154	24.71	243.093
6	129700	24.81	243.093
6	130246	24.91	243.093
6	130800	25.01	243.093
6	131346	25.11	243.093
6	131892	25.21	243.093
6	132438	25.31	243.093
6	132984	25.41	243.093
6	133530	25.51	243.093
6	134076	25.61	243.093
6	134622	25.71	243.093
6	135168	25.81	243.093
6	135714	25.91	243.093
6	136268	26.01	243.093
6	136814	26.11	243.093
6	137360	26.21	243.093
6	137906	26.31	243.093
6	138452	26.41	243.093
6	138998	26.51	243.093
6	139544	26.61	243.093
6	140090	26.71	243.093
6	140636	26.81	243.093
6	141182	26.91	243.093
6	141736	27.01	243.093
6	142282	27.11	243.093
6	142828	27.21	243.093
6	143374	27.31	243.093
6	143920	27.41	243.093
6	144466	27.51	243.093
6	145012	27.61	243.093
6	145558	27.71	243.093
6	146104	27.81	243.093
6	146650	27.91	243.093
6	147204	28.01	243.093
6	147750	28.11	243.093
6	148296	28.21	243.093
6	148842	28.31	243.093
6	149388	28.41	243.093
6	149934	28.51	243.093
6	150480	28.61	243.093
6	151026	28.71	243.093
6	151572	28.81	243.093
6	152118	28.91	243.093
6	152672	29.01	243.093
6	153218	29.11	243.093
6	153764	29.21	243.093
6	154310	29.31	243.093
6	154856	29.41	243.093
6	155402	29.51	243.093
6	155948	29.61	243.093
6	156494	29.71	243.093
6	157040	29.81	243.093
6	157586	29.91	243.093
6	158140	30.01	243.093
6	158686	30.11	243.093
6	159232	30.21	243.093
6	159778	30.31	243.093
6	160324	30.41	243.093
6	160870	30.51	243.093
6	161416	30.61	243.093
6	161962	30.71	243.093
6	162508	30.81	243.093
6	163054	30.91	243.093
6	163608	31.01	243.093
6	164154	31.11	243.093
6	164700	31.21	243.093
6	165246	31.31	243.093
6	165792	31.41	243.093
6	166338	31.51	243.093
6	166884	31.61	243.093
6	167430	31.71	243.093
6	167976	31.81	243.093
6	168522	31.91	243.093
6	169076	32.01	243.093
6	169622	32.11	243.093
6	170168	32.21	243.093
6	170714	32.31	243.093
6	171260	32.41	243.093
6	171806	32.51	243.093
6	172352	32.61	243.093
6	172898	32.71	243.093
6	173444	32.81	243.093
6	173990	32.91	243.093
6	174544	33.01	243.093
6	175090	33.11	243.093
6	175636	33.21	243.093
6	176182	33.31	243.093
6	176728	33.41	243.093
6	177274	33.51	243.093
6	177820	33.61	243.093
6	178366	33.71	243.093
6	178912	33.81	243.093
6	179458	33.91	243.093
6	180012	34.01	243.093
6	180558	34.11	243.093
6	181104	34.21	243.093
6	181650	34.31	243.093
6	182196	34.41	243.093
6	182742	34.51	243.093
6	183288	34.61	243.093
6	183834	34.71	243.093
6	184380	34.81	243.093
6	184926	34.91	243.093
6	185480	35.01	243.093
6	186026	35.11	243.093
6	186572	35.21	243.093
6	187118	35.31	243.093
6	187664	35.41	243.093
6	188210	35.51	243.093
6	188756	35.61	243.093
6	189302	35.71	243.093
6	189848	35.81	243.093
6	190394	35.91	243.093
6	190948	36.01	243.093
6	191494	36.11	243.093
6	192040	36.21	243.093
6	192586	36.31	243.093
6	193132	36.41	243.093
6	193678	36.51	243.093
6	194224	36.61	243.093
6	194770	36.71	243.093
6	195316	36.81	243.093
6	195862	36.91	243.093
6	196416	37.01	243.093
6	196962	37.11	243.093
6	197508	37.21	243.093
6	198054	37.31	243.093
6	198600	37.41	243.093
6	199146	37.51	243.093
6	199692	37.61	243.093
6	200238	37.71	243.093
6	200784	37.81	243.093
6	201330	37.91	243.093
6	201884	38.01	243.093
6	202430	38.11	243.093
6	202976	38.21	243.093
6	203522	38.31	243.093
6	204068	38.41	243.093
6	204614	38.51	243.093
6	205160	38.61	243.093
6	205706	38.71	243.093
6	206252	38.81	243.093
6	206798	38.91	243.093
6	207352	39.01	243.093
6	207898	39.11	243.093
6	208444	39.21	243.093
6	208990	39.31	243.093
6	209536	39.41	243.093
6	210082	39.51	243.093
6	210628	39.61	243.093
6	211174	39.71	243.093
6	211720	39.81	243.093
6	212266	39.91	243.093
6	212820	40.01	243.093
6	213366	40.11	243.093
6	213912	40.21	243.093
6	214458	40.31	243.093
6	215004	40.41	243.093
6	215550	40.51	243.093
6	216096	40.61	243.093
6	216642	40.71	243.093
6	217188	40.81	243.093
6	217734	40.91	243.093
6	218288	41.01	243.093
6	218834	41.11	243.093
6	219380	41.21	243.093
6	219926	41.31	243.093
6	220472	41.41	243.093
6	221018	41.51	243.093
6	221564	41.61	243.093
6	222110	41.71	243.093
6	222656	41.81	243.093
6	223202	41.91	243.093
6	223756	42.01	243.093
6	224302	42.11	243.093
6	224848	42.21	243.093
6	225394	42.31	243.093
6	225940	42.41	243.093
6	226486	42.51	243.093
6	227032	42.61	243.093
6	227578	42.71	243.093
6	228124	42.81	243.093
6	228670	42.91	243.093
6	229224	43.01	243.093
6	229770	43.11	243.093
6	230316	43.21	243.093
6	230862	43.31	243.093
6	231408	43.41	243.093
6	231954	43.51	243.093
6	232500	43.61	243.093
6	233046	43.71	243.093
6	233592	43.81	243.093
6	234138	43.91	243.093
6	234692	44.01	243.093
6	235238	44.11	243.093
6	235784	44.21	243.093
6	236330	44.31	243.093
6	236876	44.41	243.093
6	237422	44.51	243.093
6	237968	44.61	243.093
6	238514	44.71	243.093
6	239060	44.81	243.093
6	239606	44.91	243.093
6	240160	45.01	243.093
6	240706	45.11	243.093
6	241252	45.21	243.093
6	241798	45.31	243.093
6	242344	45.41	243.093
6	242890	45.51	243.093
6	243436	45.61	243.093
6	243982	45.71	243.093
6	244528	45.81	243.093
6	245074	45.91	243.093
6	245628	46.01	243.093
6	246174	46.11	243.093
6	246720	46.21	243.093
6	247266	46.31	243.093
6	247812	46.41	243.093
6	248358	46.51	243.093
6	248904	46.61	243.093
6	249450	46.71	243.093
6	249996	46.81	243.093
6	250542	46.91	243.093
6	251096	47.01	243.093
6	251642	47.11	243.093
6	252188	47.21	243.093
6	252734	47.31	243.093
6	253280	47.41	243.093
6	253826	47.51	243.093
6	254372	47.61	243.093
6	254918	47.71	243.093
6	255464	47.81	243.093
6	256010	47.91	243.093
6	256564	48.01	243.093
6	257110	48.11	243.093
6	257656	48.21	243.093
6	258202	48.31	243.093
6	258748	48.41	243.093
6	259294	48.51	243.093
6	259840	48.61	243.093
6	260386	48.71	243.093
6	260932	48.81	243.093
6	261478	48.91	243.093
6	262032	49.01	243.093
6	262578	49.11	243.093
6	263124	49.21	243.093
6	263670	49.31	243.093
6	264216	49.41	243.093
6	264762	49.51	243.093
6	265308	49.61	243.093
6	265854	49.71	243.093
6	266400	49.81	243.093
6	266946	49.91	243.093
6	267500	50.01	243.093
6	268046	50.11	243.093
6	268592	50.21	243.093
6	269138	50.31	243.093
6	269684	50.41	243.093
6	270230	50.51	243.093
6	270776	50.61	243.093
6	271322	50.71	243.093
6	271868	50.81	243.093
6	272414	50.91	243.093
6	272968	51.01	243.093
6	273514	51.11	243.093
6	274060	51.21	243.093
6	274606	51.31	243.093
6	275152	51.41	243.093
6	275698	51.51	243.093
6	276244	51.61	243.093
6	276790	51.71	243.093
6	277336	51.81	243.093
6	277882	51.91	243.093
6	278436	52.01	243.093
6	278982	52.11	243.093
6	279528	52.21	243.093
6	280074	52.31	243.093
6	280620	52.41	243.093
6	281166	52.51	243.093
6	281712	52.61	243.093
6	282258	52.71	243.093
6	282804	52.81	243.093
6	283350	52.91	243.093
6	283904	53.01	243.093
6	284450	53.11	243.093
6	284996	53.21	243.093
6	285542	53.31	243.093
6	286088	53.41	243.093
6	286634	53.51	243.093
6	287180	53.61	243.093
6	287726	53.71	243.093
6	288272	53.81	243.093
6	288818	53.91	243.093
6	289372	54.01	243.093
6	289918	54.11	243.093
6	290464	54.21	243.093
6	291010	54.31	243.093
6	291556	54.41	243.093
6	292102	54.51	243.093
6	292648	54.61	243.093
6	293194	54.71	243.093
6	293740	54.81	243.093
6	294286	54.91	243.093
6	294840	55.01	243.093
6	295386	55.11	243.093
6	295932	55.21	243.093
6	296478	55.31	243.093
6	297024	55.41	243.093
6	297570	55.51	243.093
6	298116	55.61	243.093
6	298662	55.71	243.093
6	299208	55.81	243.093
6	299754	55.91	243.093
6	300308	56.01	243.093
6	300854	56.11	243.093
6	301400	56.21	243.093
6	301946	56.31	243.093
6	302492	56.41	243.093
6	303038	56.51	243.093
6	303584	56.61	243.093
6	304130	56.71	243.093
6	304676	56.81	243.093
6	305222	56.91	243.093
6	305776	57.01	243.093
6	306322	57.11	243.093
6	306868	57.21	243.093
6	307414	57.31	243.093
6	307960	57.41	243.093
6	308506	57.51	243.093
6	309052	57.61	243.093
6	309598	57.71	243.093
6	310144	57.81	243.093
6	310690	57.91	243.093
6	311244	58.01	243.093
6	311790	58.11	243.093
6	312336	58.21	243.093
6	312882	58.31	243.093
6	313428	58.41	243.093
6	313974	58.51	243.093
6	314520	58.61	243.093
6	315066	58.71	243.093
6	315612	58.81	243.093
6	316158	58.91	243.093
6	316712	59.01	243.093
6	317258	59.11	243.093
6	317804	59.21	243.093
6	318350	59.31	243.093
6	318896	59.41	243.093
6	319442	59.51	243.093
6	319988	59.61	243.093
6	320534	59.71	243.093
6	321080	59.81	243.093
6	321626	59.91	243.093
5	113	1.11	27.78
5	659	1.21	27.7799
5	1205	1.31	27.7798
5	1751	1.41	27.7797
5	2297	1.51	27.7796
5	2843	1.61	27.7795
5	3389	1.71	27.7794
5	3935	1.81	27.7792
5	4481	1.91	27.7791
5	5035	2.01	27.7789
5	5581	2.11	27.7788
5	6127	2.21	27.7787
5	6673	2.31	27.7785
5	7219	2.41	27.7784
5	7765	2.51	27.7783
5	8311	2.61	27.7782
5	8857	2.71	27.7782
5	9403	2.81	27.7781
5	9949	2.91	27.778
5	10503	3.01	27.7779
5	11049	3.11	27.7779
5	11595	3.21	27.7779
5	12141	3.31	27.7778
5	12687	3.41	27.7778
5	13233	3.51	27.7778
5	13779	3.61	27.7777
5	14325	3.71	27.7777
5	14871	3.81	27.7777
5	15417	3.91	27.7777
5	15971	4.01	27.7777
5	16517	4.11	27.7777
5	17063	4.21	27.7777
5	17609	4.31	27.7777
5	18155	4.41	27.7777
5	18701	4.51	27.7777
5	19247	4.61	27.7777
5	19793	4.71	27.7777
5	20339	4.81	27.7777
5	20885	4.91	27.7777
5	21440	5.01	27.7762
5	21986	5.11	27.6807
5	22532	5.21	27.4586
5	23078	5.31	27.1328
5	23624	5.41	26.7217
5	24170	5.51	26.2408
5	24716	5.61	25.7025
5	25262	5.71	25.1173
5	25808	5.81	24.4934
5	26354	5.91	23.8379
5	26908	6.01	23.1565
5	27454	6.11	22.4537
5	28000	6.21	21.7335
5	28546	6.31	20.9989
5	29092	6.41	20.2526
5	29638	6.51	19.4967
5	30184	6.61	18.7328
5	30730	6.71	17.9624
5	31276	6.81	17.1867
5	31822	6.91	16.4067
5	32376	7.01	15.6231
5	32922	7.11	14.8365
5	33468	7.21	14.0475
5	34014	7.31	13.2565
5	34560	7.41	12.4639
5	35106	7.51	11.67
5	35652	7.61	10.875
5	36198	7.71	10.0791
5	36744	7.81	9.28245
5	37290	7.91	8.4852
5	37844	8.01	7.68746
5	38390	8.11	6.88931
5	38936	8.21	6.09083
5	39482	8.31	5.29208
5	40028	8.41	4.4931
5	40574	8.51	3.69394
5	41120	8.61	2.89463
5	41666	8.71	2.09519
5	42212	8.81	1.29566
5	42758	8.91	0.496036
5	43312	9.01	0
5	43858	9.11	0
5	44404	9.21	0
5	44950	9.31	0
5	45496	9.41	0
5	46042	9.51	0
5	46588	9.61	0
5	47134	9.71	0
5	47680	9.81	0
5	48226	9.91	0
5	48780	10.01	0
5	49326	10.11	0
5	49872	10.21	0
5	50418	10.31	0
5	50964	10.41	0
5	51510	10.51	0
5	52056	10.61	0
5	52602	10.71	0
5	53148	10.81	0
5	53694	10.91	0
5	54248	11.01	0
5	54794	11.11	0
5	55340	11.21	0
5	55886	11.31	0
5	56432	11.41	0
5	56978	11.51	0
5	57524	11.61	0
5	58070	11.71	0
5	58616	11.81	0
5	59162	11.91	0
5	59716	12.01	0
5	60262	12.11	0
5	60808	12.21	0
5	61354	12.31	0
5	61900	12.41	0
5	62446	12.51	0
5	62992	12.61	0
5	63538	12.71	0
5	64084	12.81	0
5	64630	12.91	0
5	65184	13.01	0
5	65730	13.11	0
5	66276	13.21	0
5	66822	13.31	0
5	67368	13.41	0
5	67914	13.51	0
5	68460	13.61	0
5	69006	13.71	0
5	69552	13.81	0
5	70098	13.91	0
5	70652	14.01	0
5	71198	14.11	0
5	71744	14.21	0
5	72290	14.31	0
5	72836	14.41	0
5	73382	14.51	0
5	73928	14.61	0
5	74474	14.71	0
5	75020	14.81	0
5	75566	14.91	0
5	76120	15.01	0
5	76666	15.11	0
5	77212	15.21	0
5	77758	15.31	0
5	78304	15.41	0
5	78850	15.51	0
5	79396	15.61	0
5	79942	15.71	0
5	80488	15.81	0
5	81034	15.91	0
5	81588	16.01	0
5	82134	16.11	0
5	82680	16.21	0
5	83226	16.31	0
5	83772	16.41	0
5	84318	16.51	0
5	84864	16.61	0
5	85410	16.71	0
5	85956	16.81	0
5	86502	16.91	0
5	87056	17.01	0
5	87602	17.11	0
5	88148	17.21	0
5	88694	17.31	0
5	89240	17.41	0
5	89786	17.51	0
5	90332	17.61	0
5	90878	17.71	0
5	91424	17.81	0
5	91970	17.91	0
5	92524	18.01	0
5	93070	18.11	0
5	93616	18.21	0
5	94162	18.31	0
5	94708	18.41	0
5	95254	18.51	0
5	95800	18.61	0
5	96346	18.71	0
5	96892	18.81	0
5	97438	18.91	0
5	97992	19.01	0
5	98538	19.11	0
5	99084	19.21	0
5	99630	19.31	0
5	100176	19.41	0
5	100722	19.51	0
5	101268	19.61	0
5	101814	19.71	0
5	102360	19.81	0
5	102906	19.91	0
5	103460	20.01	0
5	104006	20.11	0
5	104552	20.21	0
5	105098	20.31	0
5	105644	20.41	0
5	106190	20.51	0
5	106736	20.61	0
5	107282	20.71	0
5	107828	20.81	0
5	108374	20.91	0
5	108928	21.01	0
5	109474	21.11	0
5	110020	21.21	0
5	110566	21.31	0
5	111112	21.41	0
5	111658	21.51	0
5	112204	21.61	0
5	112750	21.71	0
5	113296	21.81	0
5	113842	21.91	0
5	114396	22.01	0
5	114942	22.11	0
5	115488	22.21	0
5	116034	22.31	0
5	116580	22.41	0
5	117126	22.51	0
5	117672	22.61	0
5	118218	22.71	0
5	118764	22.81	0
5	119310	22.91	0
5	119864	23.01	0
5	120410	23.11	0
5	120956	23.21	0
5	121502	23.31	0
5	122048	23.41	0
5	122594	23.51	0
5	123140	23.61	0
5	123686	23.71	0
5	124232	23.81	0
5	124778	23.91	0
5	125332	24.01	0
5	125878	24.11	0
5	126424	24.21	0
5	126970	24.31	0
5	127516	24.41	0
5	128062	24.51	0
5	128608	24.61	0
5	129154	24.71	0
5	129700	24.81	0
5	130246	24.91	0
5	130800	25.01	0
5	131346	25.11	0
5	131892	25.21	0
5	132438	25.31	0
5	132984	25.41	0
5	133530	25.51	0
5	134076	25.61	0
5	134622	25.71	0
5	135168	25.81	0
5	135714	25.91	0
5	136268	26.01	0
5	136814	26.11	0
5	137360	26.21	0
5	137906	26.31	0
5	138452	26.41	0
5	138998	26.51	0
5	139544	26.61	0
5	140090	26.71	0
5	140636	26.81	0
5	141182	26.91	0
5	141736	27.01	0
5	142282	27.11	0
5	142828	27.21	0
5	143374	27.31	0
5	143920	27.41	0
5	144466	27.51	0
5	145012	27.61	0
5	145558	27.71	0
5	146104	27.81	0
5	146650	27.91	0
5	147204	28.01	0
5	147750	28.11	0
5	148296	28.21	0
5	148842	28.31	0
5	149388	28.41	0
5	149934	28.51	0
5	150480	28.61	0
5	151026	28.71	0
5	151572	28.81	0
5	152118	28.91	0
5	152672	29.01	0
5	153218	29.11	0
5	153764	29.21	0
5	154310	29.31	0
5	154856	29.41	0
5	155402	29.51	0
5	155948	29.61	0
5	156494	29.71	0
5	157040	29.81	0
5	157586	29.91	0
5	158140	30.01	0
5	158686	30.11	0
5	159232	30.21	0
5	159778	30.31	0
5	160324	30.41	0
5	160870	30.51	0
5	161416	30.61	0
5	161962	30.71	0
5	162508	30.81	0
5	163054	30.91	0
5	163608	31.01	0
5	164154	31.11	0
5	164700	31.21	0
5	165246	31.31	0
5	165792	31.41	0
5	166338	31.51	0
5	166884	31.61	0
5	167430	31.71	0
5	167976	31.81	0
5	168522	31.91	0
5	169076	32.01	0
5	169622	32.11	0
5	170168	32.21	0
5	170714	32.31	0
5	171260	32.41	0
5	171806	32.51	0
5	172352	32.61	0
5	172898	32.71	0
5	173444	32.81	0
5	173990	32.91	0
5	174544	33.01	0
5	175090	33.11	0
5	175636	33.21	0
5	176182	33.31	0
5	176728	33.41	0
5	177274	33.51	0
5	177820	33.61	0
5	178366	33.71	0
5	178912	33.81	0
5	179458	33.91	0
5	180012	34.01	0
5	180558	34.11	0
5	181104	34.21	0
5	181650	34.31	0
5	182196	34.41	0
5	182742	34.51	0
5	183288	34.61	0
5	183834	34.71	0
5	184380	34.81	0
5	184926	34.91	0
5	185480	35.01	0
5	186026	35.11	0
5	186572	35.21	0
5	187118	35.31	0
5	187664	35.41	0
5	188210	35.51	0
5	188756	35.61	0
5	189302	35.71	0
5	189848	35.81	0
5	190394	35.91	0
5	190948	36.01	0
5	191494	36.11	0
5	192040	36.21	0
5	192586	36.31	0
5	193132	36.41	0
5	193678	36.51	0
5	194224	36.61	0
5	194770	36.71	0
5	195316	36.81	0
5	195862	36.91	0
5	196416	37.01	0
5	196962	37.11	0
5	197508	37.21	0
5	198054	37.31	0
5	198600	37.41	0
5	199146	37.51	0
5	199692	37.61	0
5	200238	37.71	0
5	200784	37.81	0
5	201330	37.91	0
5	201884	38.01	0
5	202430	38.11	0
5	202976	38.21	0
5	203522	38.31	0
5	204068	38.41	0
5	204614	38.51	0
5	205160	38.61	0
5	205706	38.71	0
5	206252	38.81	0
5	206798	38.91	0
5	207352	39.01	0
5	207898	39.11	0
5	208444	39.21	0
5	208990	39.31	0
5	209536	39.41	0
5	210082	39.51	0
5	210628	39.61	0
5	211174	39.71	0
5	211720	39.81	0
5	212266	39.91	0
5	212820	40.01	0
5	213366	40.11	0
5	213912	40.21	0
5	214458	40.31	0
5	215004	40.41	0
5	215550	40.51	0
5	216096	40.61	0
5	216642	40.71	0
5	217188	40.81	0
5	217734	40.91	0
5	218288	41.01	0
5	218834	41.11	0
5	219380	41.21	0
5	219926	41.31	0
5	220472	41.41	0
5	221018	41.51	0
5	221564	41.61	0
5	222110	41.71	0
5	222656	41.81	0
5	223202	41.91	0
5	223756	42.01	0
5	224302	42.11	0
5	224848	42.21	0
5	225394	42.31	0
5	225940	42.41	0
5	226486	42.51	0
5	227032	42.61	0
5	227578	42.71	0
5	228124	42.81	0
5	228670	42.91	0
5	229224	43.01	0
5	229770	43.11	0
5	230316	43.21	0
5	230862	43.31	0
5	231408	43.41	0
5	231954	43.51	0
5	232500	43.61	0
5	233046	43.71	0
5	233592	43.81	0
5	234138	43.91	0
5	234692	44.01	0
5	235238	44.11	0
5	235784	44.21	0
5	236330	44.31	0
5	236876	44.41	0
5	237422	44.51	0
5	237968	44.61	0
5	238514	44.71	0
5	239060	44.81	0
5	239606	44.91	0
5	240160	45.01	0
5	240706	45.11	0
5	241252	45.21	0
5	241798	45.31	0
5	242344	45.41	0
5	242890	45.51	0
5	243436	45.61	0
5	243982	45.71	0
5	244528	45.81	0
5	245074	45.91	0
5	245628	46.01	0
5	246174	46.11	0
5	246720	46.21	0
5	247266	46.31	0
5	247812	46.41	0
5	248358	46.51	0
5	248904	46.61	0
5	249450	46.71	0
5	249996	46.81	0
5	250542	46.91	0
5	251096	47.01	0
5	251642	47.11	0
5	252188	47.21	0
5	252734	47.31	0
5	253280	47.41	0
5	253826	47.51	0
5	254372	47.61	0
5	254918	47.71	0
5	255464	47.81	0
5	256010	47.91	0
5	256564	48.01	0
5	257110	48.11	0
5	257656	48.21	0
5	258202	48.31	0
5	258748	48.41	0
5	259294	48.51	0
5	259840	48.61	0
5	260386	48.71	0
5	260932	48.81	0
5	261478	48.91	0
5	262032	49.01	0
5	262578	49.11	0
5	263124	49.21	0
5	263670	49.31	0
5	264216	49.41	0
5	264762	49.51	0
5	265308	49.61	0
5	265854	49.71	0
5	266400	49.81	0
5	266946	49.91	0
5	267500	50.01	0
5	268046	50.11	0
5	268592	50.21	0
5	269138	50.31	0
5	269684	50.41	0
5	270230	50.51	0
5	270776	50.61	0
5	271322	50.71	0
5	271868	50.81	0
5	272414	50.91	0
5	272968	51.01	0
5	273514	51.11	0
5	274060	51.21	0
5	274606	51.31	0
5	275152	51.41	0
5	275698	51.51	0
5	276244	51.61	0
5	276790	51.71	0
5	277336	51.81	0
5	277882	51.91	0
5	278436	52.01	0
5	278982	52.11	0
5	279528	52.21	0
5	280074	52.31	0
5	280620	52.41	0
5	281166	52.51	0
5	281712	52.61	0
5	282258	52.71	0
5	282804	52.81	0
5	283350	52.91	0
5	283904	53.01	0
5	284450	53.11	0
5	284996	53.21	0
5	285542	53.31	0
5	286088	53.41	0
5	286634	53.51	0
5	287180	53.61	0
5	287726	53.71	0
5	288272	53.81	0
5	288818	53.91	0
5	289372	54.01	0
5	289918	54.11	0
5	290464	54.21	0
5	291010	54.31	0
5	291556	54.41	0
5	292102	54.51	0
5	292648	54.61	0
5	293194	54.71	0
5	293740	54.81	0
5	294286	54.91	0
5	294840	55.01	0
5	295386	55.11	0
5	295932	55.21	0
5	296478	55.31	0
5	297024	55.41	0
5	297570	55.51	0
5	298116	55.61	0
5	298662	55.71	0
5	299208	55.81	0
5	299754	55.91	0
5	300308	56.01	0
5	300854	56.11	0
5	301400	56.21	0
5	301946	56.31	0
5	302492	56.41	0
5	303038	56.51	0
5	303584	56.61	0
5	304130	56.71	0
5	304676	56.81	0
5	305222	56.91	0
5	305776	57.01	0
5	306322	57.11	0
5	306868	57.21	0
5	307414	57.31	0
5	307960	57.41	0
5	308506	57.51	0
5	309052	57.61	0
5	309598	57.71	0
5	310144	57.81	0
5	310690	57.91	0
5	311244	58.01	0
5	311790	58.11	0
5	312336	58.21	0
5	312882	58.31	0
5	313428	58.41	0
5	313974	58.51	0
5	314520	58.61	0
5	315066	58.71	0
5	315612	58.81	0
5	316158	58.91	0
5	316712	59.01	0
5	317258	59.11	0
5	317804	59.21	0
5	318350	59.31	0
5	318896	59.41	0
5	319442	59.51	0
5	319988	59.61	0
5	320534	59.71	0
5	321080	59.81	0
5	321626	59.91	0
1	113	1.11	0
1	659	1.21	0
1	1205	1.31	0
1	1751	1.41	0
1	2297	1.51	0
1	2843	1.61	0
1	3389	1.71	0
1	3935	1.81	0
1	4481	1.91	0
1	5035	2.01	0
1	5581	2.11	0
1	6127	2.21	0
1	6673	2.31	0
1	7219	2.41	0
1	7765	2.51	0
1	8311	2.61	0
1	8857	2.71	0
1	9403	2.81	0
1	9949	2.91	0
1	10503	3.01	0
1	11049	3.11	0
1	11595	3.21	0
1	12141	3.31	0
1	12687	3.41	0
1	13233	3.51	0
1	13779	3.61	0
1	14325	3.71	0
1	14871	3.81	0
1	15417	3.91	0
1	15971	4.01	0
1	16517	4.11	0
1	17063	4.21	0
1	17609	4.31	0
1	18155	4.41	0
1	18701	4.51	0
1	19247	4.61	0
1	19793	4.71	0
1	20339	4.81	0
1	20885	4.91	0
1	21440	5.01	0
1	21986	5.11	0
1	22532	5.21	0
1	23078	5.31	0
1	23624	5.41	0
1	24170	5.51	0
1	24716	5.61	0
1	25262	5.71	0
1	25808	5.81	0
1	26354	5.91	0
1	26908	6.01	0
1	27454	6.11	0
1	28000	6.21	0
1	28546	6.31	0
1	29092	6.41	0
1	29638	6.51	0
1	30184	6.61	0
1	30730	6.71	0
1	31276	6.81	0
1	31822	6.91	0
1	32376	7.01	0
1	32922	7.11	0
1	33468	7.21	0
1	34014	7.31	0
1	34560	7.41	0
1	35106	7.51	0
1	35652	7.61	0
1	36198	7.71	0
1	36744	7.81	0
1	37290	7.91	0
1	37844	8.01	0
1	38390	8.11	0
1	38936	8.21	0
1	39482	8.31	0
1	40028	8.41	0
1	40574	8.51	0
1	41120	8.61	0
1	41666	8.71	0
1	42212	8.81	0
1	42758	8.91	0
1	43312	9.01	0
1	43858	9.11	0
1	44404	9.21	0
1	44950	9.31	0
1	45496	9.41	0
1	46042	9.51	0
1	46588	9.61	0
1	47134	9.71	0
1	47680	9.81	0
1	48226	9.91	0
1	48780	10.01	0
1	49326	10.11	0
1	49872	10.21	0
1	50418	10.31	0
1	50964	10.41	0
1	51510	10.51	0
1	52056	10.61	0
1	52602	10.71	0
1	53148	10.81	0
1	53694	10.91	0
1	54248	11.01	0
1	54794	11.11	0
1	55340	11.21	0
1	55886	11.31	0
1	56432	11.41	0
1	56978	11.51	0
1	57524	11.61	0
1	58070	11.71	0
1	58616	11.81	0
1	59162	11.91	0
1	59716	12.01	0
1	60262	12.11	0
1	60808	12.21	0
1	61354	12.31	0
1	61900	12.41	0
1	62446	12.51	0
1	62992	12.61	0
1	63538	12.71	0
1	64084	12.81	0
1	64630	12.91	0
1	65184	13.01	0
1	65730	13.11	0
1	66276	13.21	0
1	66822	13.31	0
1	67368	13.41	0
1	67914	13.51	0
1	68460	13.61	0
1	69006	13.71	0
1	69552	13.81	0
1	70098	13.91	0
1	70652	14.01	0
1	71198	14.11	0
1	71744	14.21	0
1	72290	14.31	0
1	72836	14.41	0
1	73382	14.51	0
1	73928	14.61	0
1	74474	14.71	0
1	75020	14.81	0
1	75566	14.91	0
1	76120	15.01	0
1	76666	15.11	0
1	77212	15.21	0
1	77758	15.31	0
1	78304	15.41	0
1	78850	15.51	0
1	79396	15.61	0
1	79942	15.71	0
1	80488	15.81	0
1	81034	15.91	0
1	81588	16.01	0
1	82134	16.11	0
1	82680	16.21	0
1	83226	16.31	0
1	83772	16.41	0
1	84318	16.51	0
1	84864	16.61	0
1	85410	16.71	0
1	85956	16.81	0
1	86502	16.91	0
1	87056	17.01	0
1	87602	17.11	0
1	88148	17.21	0
1	88694	17.31	0
1	89240	17.41	0
1	89786	17.51	0
1	90332	17.61	0
1	90878	17.71	0
1	91424	17.81	0
1	91970	17.91	0
1	92524	18.01	0
1	93070	18.11	0
1	93616	18.21	0
1	94162	18.31	0
1	94708	18.41	0
1	95254	18.51	0
1	95800	18.61	0
1	96346	18.71	0
1	96892	18.81	0
1	97438	18.91	0
1	97992	19.01	0
1	98538	19.11	0
1	99084	19.21	0
1	99630	19.31	0
1	100176	19.41	0
1	100722	19.51	0
1	101268	19.61	0
1	101814	19.71	0
1	102360	19.81	0
1	102906	19.91	0
1	103460	20.01	0
1	104006	20.11	0
1	104552	20.21	0
1	105098	20.31	0
1	105644	20.41	0
1	106190	20.51	0
1	106736	20.61	0
1	107282	20.71	0
1	107828	20.81	0
1	108374	20.91	0
1	108928	21.01	0
1	109474	21.11	0
1	110020	21.21	0
1	110566	21.31	0
1	111112	21.41	0
1	111658	21.51	0
1	112204	21.61	0
1	112750	21.71	0
1	113296	21.81	0
1	113842	21.91	0
1	114396	22.01	0
1	114942	22.11	0
1	115488	22.21	0
1	116034	22.31	0
1	116580	22.41	0
1	117126	22.51	0
1	117672	22.61	0
1	118218	22.71	0
1	118764	22.81	0
1	119310	22.91	0
1	119864	23.01	0
1	120410	23.11	0
1	120956	23.21	0
1	121502	23.31	0
1	122048	23.41	0
1	122594	23.51	0
1	123140	23.61	0
1	123686	23.71	0
1	124232	23.81	0
1	124778	23.91	0
1	125332	24.01	0
1	125878	24.11	0
1	126424	24.21	0
1	126970	24.31	0
1	127516	24.41	0
1	128062	24.51	0
1	128608	24.61	0
1	129154	24.71	0
1	129700	24.81	0
1	130246	24.91	0
1	130800	25.01	0
1	131346	25.11	0
1	131892	25.21	0
1	132438	25.31	0
1	132984	25.41	0
1	133530	25.51	0
1	134076	25.61	0
1	134622	25.71	0
1	135168	25.81	0
1	135714	25.91	0
1	136268	26.01	0
1	136814	26.11	0
1	137360	26.21	0
1	137906	26.31	0
1	138452	26.41	0
1	138998	26.51	0
1	139544	26.61	0
1	140090	26.71	0
1	140636	26.81	0
1	141182	26.91	0
1	141736	27.01	0
1	142282	27.11	0
1	142828	27.21	0
1	143374	27.31	0
1	143920	27.41	0
1	144466	27.51	0
1	145012	27.61	0
1	145558	27.71	0
1	146104	27.81	0
1	146650	27.91	0
1	147204	28.01	0
1	147750	28.11	0
1	148296	28.21	0
1	148842	28.31	0
1	149388	28.41	0
1	149934	28.51	0
1	150480	28.61	0
1	151026	28.71	0
1	151572	28.81	0
1	152118	28.91	0
1	152672	29.01	0
1	153218	29.11	0
1	153764	29.21	0
1	154310	29.31	0
1	154856	29.41	0
1	155402	29.51	0
1	155948	29.61	0
1	156494	29.71	0
1	157040	29.81	0
1	157586	29.91	0
1	158140	30.01	0
1	158686	30.11	0
1	159232	30.21	0
1	159778	30.31	0
1	160324	30.41	0
1	160870	30.51	0
1	161416	30.61	0
1	161962	30.71	0
1	162508	30.81	0
1	163054	30.91	0
1	163608	31.01	0
1	164154	31.11	0
1	164700	31.21	0
1	165246	31.31	0
1	165792	31.41	0
1	166338	31.51	0
1	166884	31.61	0
1	167430	31.71	0
1	167976	31.81	0
1	168522	31.91	0
1	169076	32.01	0
1	169622	32.11	0
1	170168	32.21	0
1	170714	32.31	0
1	171260	32.41	0
1	171806	32.51	0
1	172352	32.61	0
1	172898	32.71	0
1	173444	32.81	0
1	173990	32.91	0
1	174544	33.01	0
1	175090	33.11	0
1	175636	33.21	0
1	176182	33.31	0
1	176728	33.41	0
1	177274	33.51	0
1	177820	33.61	0
1	178366	33.71	0
1	178912	33.81	0
1	179458	33.91	0
1	180012	34.01	0
1	180558	34.11	0
1	181104	34.21	0
1	181650	34.31	0
1	182196	34.41	0
1	182742	34.51	0
1	183288	34.61	0
1	183834	34.71	0
1	184380	34.81	0
1	184926	34.91	0
1	185480	35.01	0
1	186026	35.11	0
1	186572	35.21	0
1	187118	35.31	0
1	187664	35.41	0
1	188210	35.51	0
1	188756	35.61	0
1	189302	35.71	0
1	189848	35.81	0
1	190394	35.91	0
1	190948	36.01	0
1	191494	36.11	0
1	192040	36.21	0
1	192586	36.31	0
1	193132	36.41	0
1	193678	36.51	0
1	194224	36.61	0
1	194770	36.71	0
1	195316	36.81	0
1	195862	36.91	0
1	196416	37.01	0
1	196962	37.11	0
1	197508	37.21	0
1	198054	37.31	0
1	198600	37.41	0
1	199146	37.51	0
1	199692	37.61	0
1	200238	37.71	0
1	200784	37.81	0
1	201330	37.91	0
1	201884	38.01	0
1	202430	38.11	0
1	202976	38.21	0
1	203522	38.31	0
1	204068	38.41	0
1	204614	38.51	0
1	205160	38.61	0
1	205706	38.71	0
1	206252	38.81	0
1	206798	38.91	0
1	207352	39.01	0
1	207898	39.11	0
1	208444	39.21	0
1	208990	39.31	0
1	209536	39.41	0
1	210082	39.51	0
1	210628	39.61	0
1	211174	39.71	0
1	211720	39.81	0
1	212266	39.91	0
1	212820	40.01	0
1	213366	40.11	0
1	213912	40.21	0
1	214458	40.31	0
1	215004	40.41	0
1	215550	40.51	0
1	216096	40.61	0
1	216642	40.71	0
1	217188	40.81	0
1	217734	40.91	0
1	218288	41.01	0
1	218834	41.11	0
1	219380	41.21	0
1	219926	41.31	0
1	220472	41.41	0
1	221018	41.51	0
1	221564	41.61	0
1	222110	41.71	0
1	222656	41.81	0
1	223202	41.91	0
1	223756	42.01	0
1	224302	42.11	0
1	224848	42.21	0
1	225394	42.31	0
1	225940	42.41	0
1	226486	42.51	0
1	227032	42.61	0
1	227578	42.71	0
1	228124	42.81	0
1	228670	42.91	0
1	229224	43.01	0
1	229770	43.11	0
1	230316	43.21	0
1	230862	43.31	0
1	231408	43.41	0
1	231954	43.51	0
1	232500	43.61	0
1	233046	43.71	0
1	233592	43.81	0
1	234138	43.91	0
1	234692	44.01	0
1	235238	44.11	0
1	235784	44.21	0
1	236330	44.31	0
1	236876	44.41	0
1	237422	44.51	0
1	237968	44.61	0
1	238514	44.71	0
1	239060	44.81	0
1	239606	44.91	0
1	240160	45.01	0
1	240706	45.11	0
1	241252	45.21	0
1	241798	45.31	0
1	242344	45.41	0
1	242890	45.51	0
1	243436	45.61	0
1	243982	45.71	0
1	244528	45.81	0
1	245074	45.91	0
1	245628	46.01	0
1	246174	46.11	0
1	246720	46.21	0
1	247266	46.31	0
1	247812	46.41	0
1	248358	46.51	0
1	248904	46.61	0
1	249450	46.71	0
1	249996	46.81	0
1	250542	46.91	0
1	251096	47.01	0
1	251642	47.11	0
1	252188	47.21	0
1	252734	47.31	0
1	253280	47.41	0
1	253826	47.51	0
1	254372	47.61	0
1	254918	47.71	0
1	255464	47.81	0
1	256010	47.91	0
1	256564	48.01	0
1	257110	48.11	0
1	257656	48.21	0
1	258202	48.31	0
1	258748	48.41	0
1	259294	48.51	0
1	259840	48.61	0
1	260386	48.71	0
1	260932	48.81	0
1	261478	48.91	0
1	262032	49.01	0
1	262578	49.11	0
1	263124	49.21	0
1	263670	49.31	0
1	264216	49.41	0
1	264762	49.51	0
1	265308	49.61	0
1	265854	49.71	0
1	266400	49.81	0
1	266946	49.91	0
1	267500	50.01	0
1	268046	50.11	0
1	268592	50.21	0
1	269138	50.31	0
1	269684	50.41	0
1	270230	50.51	0
1	270776	50.61	0
1	271322	50.71	0
1	271868	50.81	0
1	272414	50.91	0
1	272968	51.01	0
1	273514	51.11	0
1	274060	51.21	0
1	274606	51.31	0
1	275152	51.41	0
1	275698	51.51	0
1	276244	51.61	0
1	276790	51.71	0
1	277336	51.81	0
1	277882	51.91	0
1	278436	52.01	0
1	278982	52.11	0
1	279528	52.21	0
1	280074	52.31	0
1	280620	52.41	0
1	281166	52.51	0
1	281712	52.61	0
1	282258	52.71	0
1	282804	52.81	0
1	283350	52.91	0
1	283904	53.01	0
1	284450	53.11	0
1	284996	53.21	0
1	285542	53.31	0
1	286088	53.41	0
1	286634	53.51	0
1	287180	53.61	0
1	287726	53.71	0
1	288272	53.81	0
1	288818	53.91	0
1	289372	54.01	0
1	289918	54.11	0
1	290464	54.21	0
1	291010	54.31	0
1	291556	54.41	0
1	292102	54.51	0
1	292648	54.61	0
1	293194	54.71	0
1	293740	54.81	0
1	294286	54.91	0
1	294840	55.01	0
1	295386	55.11	0
1	295932	55.21	0
1	296478	55.31	0
1	297024	55.41	0
1	297570	55.51	0
1	298116	55.61	0
1	298662	55.71	0
1	299208	55.81	0
1	299754	55.91	0
1	300308	56.01	0
1	300854	56.11	0
1	301400	56.21	0
1	301946	56.31	0
1	302492	56.41	0
1	303038	56.51	0
1	303584	56.61	0
1	304130	56.71	0
1	304676	56.81	0
1	305222	56.91	0
1	305776	57.01	0
1	306322	57.11	0
1	306868	57.21	0
1	307414	57.31	0
1	307960	57.41	0
1	308506	57.51	0
1	309052	57.61	0
1	309598	57.71	0
1	310144	57.81	0
1	310690	57.91	0
1	311244	58.01	0
1	311790	58.11	0
1	312336	58.21	0
1	312882	58.31	0
1	313428	58.41	0
1	313974	58.51	0
1	314520	58.61	0
1	315066	58.71	0
1	315612	58.81	0
1	316158	58.91	0
1	316712	59.01	0
1	317258	59.11	0
1	317804	59.21	0
1	318350	59.31	0
1	318896	59.41	0
1	319442	59.51	0
1	319988	59.61	0
1	320534	59.71	0
1	321080	59.81	0
1	321626	59.91	0
0	113	1.11	-1
0	659	1.21	-1
0	1205	1.31	-1
0	1751	1.41	-1
0	2297	1.51	-1
0	2843	1.61	-1
0	3389	1.71	-1
0	3935	1.81	-1
0	4481	1.91	-1
0	5035	2.01	-1
0	5581	2.11	-1
0	6127	2.21	-1
0	6673	2.31	-1
0	7219	2.41	-1
0	7765	2.51	-1
0	8311	2.61	-1
0	8857	2.71	-1
0	9403	2.81	-1
0	9949	2.91	-1
0	10503	3.01	-1
0	11049	3.11	-1
0	11595	3.21	-1
0	12141	3.31	-1
0	12687	3.41	-1
0	13233	3.51	-1
0	13779	3.61	-1
0	14325	3.71	-1
0	14871	3.81	-1
0	15417	3.91	-1
0	15971	4.01	-1
0	16517	4.11	-1
0	17063	4.21	-1
0	17609	4.31	-1
0	18155	4.41	-1
0	18701	4.51	-1
0	19247	4.61	-1
0	19793	4.71	-1
0	20339	4.81	-1
0	20885	4.91	-1
0	21440	5.01	-1
0	21986	5.11	-1
0	22532	5.21	-1
0	23078	5.31	-1
0	23624	5.41	-1
0	24170	5.51	-1
0	24716	5.61	-1
0	25262	5.71	-1
0	25808	5.81	-1
0	26354	5.91	-1
0	26908	6.01	-1
0	27454	6.11	-1
0	28000	6.21	-1
0	28546	6.31	-1
0	29092	6.41	-1
0	29638	6.51	-1
0	30184	6.61	-1
0	30730	6.71	-1
0	31276	6.81	-1
0	31822	6.91	-1
0	32376	7.01	-1
0	32922	7.11	-1
0	33468	7.21	-1
0	34014	7.31	-1
0	34560	7.41	-1
0	35106	7.51	-1
0	35652	7.61	-1
0	36198	7.71	-1
0	36744	7.81	-1
0	37290	7.91	-1
0	37844	8.01	-1
0	38390	8.11	-1
0	38936	8.21	-1
0	39482	8.31	-1
0	40028	8.41	-1
0	40574	8.51	-1
0	41120	8.61	-1
0	41666	8.71	-1
0	42212	8.81	-1
0	42758	8.91	-1
0	43312	9.01	-1
0	43858	9.11	-1
0	44404	9.21	-1
0	44950	9.31	-1
0	45496	9.41	-1
0	46042	9.51	-1
0	46588	9.61	-1
0	47134	9.71	-1
0	47680	9.81	-1
0	48226	9.91	-1
0	48780	10.01	-1
0	49326	10.11	-1
0	49872	10.21	-1
0	50418	10.31	-1
0	50964	10.41	-1
0	51510	10.51	-1
0	52056	10.61	-1
0	52602	10.71	-1
0	53148	10.81	-1
0	53694	10.91	-1
0	54248	11.01	-1
0	54794	11.11	-1
0	55340	11.21	-1
0	55886	11.31	-1
0	56432	11.41	-1
0	56978	11.51	-1
0	57524	11.61	-1
0	58070	11.71	-1
0	58616	11.81	-1
0	59162	11.91	-1
0	59716	12.01	-1
0	60262	12.11	-1
0	60808	12.21	-1
0	61354	12.31	-1
0	61900	12.41	-1
0	62446	12.51	-1
0	62992	12.61	-1
0	63538	12.71	-1
0	64084	12.81	-1
0	64630	12.91	-1
0	65184	13.01	-1
0	65730	13.11	-1
0	66276	13.21	-1
0	66822	13.31	-1
0	67368	13.41	-1
0	67914	13.51	-1
0	68460	13.61	-1
0	69006	13.71	-1
0	69552	13.81	-1
0	70098	13.91	-1
0	70652	14.01	-1
0	71198	14.11	-1
0	71744	14.21	-1
0	72290	14.31	-1
0	72836	14.41	-1
0	73382	14.51	-1
0	73928	14.61	-1
0	74474	14.71	-1
0	75020	14.81	-1
0	75566	14.91	-1
0	76120	15.01	-1
0	76666	15.11	-1
0	77212	15.21	-1
0	77758	15.31	-1
0	78304	15.41	-1
0	78850	15.51	-1
0	79396	15.61	-1
0	79942	15.71	-1
0	80488	15.81	-1
0	81034	15.91	-1
0	81588	16.01	-1
0	82134	16.11	-1
0	82680	16.21	-1
0	83226	16.31	-1
0	83772	16.41	-1
0	84318	16.51	-1
0	84864	16.61	-1
0	85410	16.71	-1
0	85956	16.81	-1
0	86502	16.91	-1
0	87056	17.01	-1
0	87602	17.11	-1
0	88148	17.21	-1
0	88694	17.31	-1
0	89240	17.41	-1
0	89786	17.51	-1
0	90332	17.61	-1
0	90878	17.71	-1
0	91424	17.81	-1
0	91970	17.91	-1
0	92524	18.01	-1
0	93070	18.11	-1
0	93616	18.21	-1
0	94162	18.31	-1
0	94708	18.41	-1
0	95254	18.51	-1
0	95800	18.61	-1
0	96346	18.71	-1
0	96892	18.81	-1
0	97438	18.91	-1
0	97992	19.01	-1
0	98538	19.11	-1
0	99084	19.21	-1
0	99630	19.31	-1
0	100176	19.41	-1
0	100722	19.51	-1
0	101268	19.61	-1
0	101814	19.71	-1
0	102360	19.81	-1
0	102906	19.91	-1
0	103460	20.01	-1
0	104006	20.11	-1
0	104552	20.21	-1
0	105098	20.31	-1
0	105644	20.41	-1
0	106190	20.51	-1
0	106736	20.61	-1
0	107282	20.71	-1
0	107828	20.81	-1
0	108374	20.91	-1
0	108928	21.01	-1
0	109474	21.11	-1
0	110020	21.21	-1
0	110566	21.31	-1
0	111112	21.41	-1
0	111658	21.51	-1
0	112204	21.61	-1
0	112750	21.71	-1
0	113296	21.81	-1
0	113842	21.91	-1
0	114396	22.01	-1
0	114942	22.11	-1
0	115488	22.21	-1
0	116034	22.31	-1
0	116580	22.41	-1
0	117126	22.51	-1
0	117672	22.61	-1
0	118218	22.71	-1
0	118764	22.81	-1
0	119310	22.91	-1
0	119864	23.01	-1
0	120410	23.11	-1
0	120956	23.21	-1
0	121502	23.31	-1
0	122048	23.41	-1
0	122594	23.51	-1
0	123140	23.61	-1
0	123686	23.71	-1
0	124232	23.81	-1
0	124778	23.91	-1
0	125332	24.01	-1
0	125878	24.11	-1
[...]
69	308142	57.454422400562	7
69	308688	57.554410225068	7
69	309234	57.654411049574	7
69	309780	57.75441187408	7
69	310326	57.854412698586	7
69	310872	57.954413523092	7
69	311426	58.054414347598	7
69	311972	58.154415172104	7
69	312518	58.25441599661	7
69	313064	58.354416821116	7
69	313610	58.454417645622	7
69	314156	58.554418470128	7
69	314702	58.654419294634	7
69	315248	58.75442011914	7
69	315794	58.854420943646	7
69	316340	58.954421768152	7
69	316894	59.054422592658	7
69	317440	59.154410417164	7
69	317986	59.25441124167	7
69	318532	59.354412066176	7
69	319078	59.454412890682	7
69	319624	59.554413715188	7
69	320170	59.654414539694	7
69	320716	59.7544153642	7
69	321262	59.854416188706	7
69	321808	59.954417013212	7
85	934	1.254875410977	7
85	1480	1.354850251559	7
85	2026	1.45487709214	7
85	2572	1.554825932721	7
85	3118	1.654891773302	7
85	3664	1.754853613883	7
85	4210	1.854880454464	7
85	4756	1.954868295045	7
85	5310	2.054895135626	7
85	5856	2.154856976207	7
85	6402	2.254870816788	7
85	6948	2.354819657369	7
85	7494	2.45479449795	7
85	8040	2.554860338531	7
85	8586	2.654874179112	7
85	9132	2.754875019693	7
85	9678	2.854862860274	7
85	10224	2.954889700855	7
85	10778	3.054825541436	7
85	11324	3.154813382017	7
85	11870	3.254827222598	7
85	12416	3.354880063179	7
85	12962	3.45484190376	7
85	13508	3.554842744341	7
85	14054	3.654895584922	7
85	14600	3.754844425503	7
85	15146	3.854884266084	7
85	15692	3.954846106665	7
85	16246	4.054807947246	7
85	16792	4.154847787827	7
85	17338	4.254809628408	7
85	17884	4.354836468989	7
85	18430	4.45483730957	7
85	18976	4.554864150151	7
85	19522	4.654877990732	7
85	20068	4.754852831313	7
85	20614	4.854827671894	7
85	21160	4.954867512475	7
85	21715	5.054803353052	7
85	22261	5.154869193567	7
85	22807	5.254831033918	7
85	23353	5.354896874029	7
85	23899	5.454884713868	7
85	24445	5.554820553425	7
85	24991	5.6548863927	7
85	25537	5.754796231683	7
85	26083	5.854875070356	7
85	26629	5.9548239087	7
85	27183	6.054798746699	7
85	27729	6.154838584339	7
85	28275	6.254865421614	7
85	28821	6.354853258515	7
85	29367	6.454893095034	7
85	29913	6.554802931162	7
85	30459	6.654816766889	7
85	31005	6.754817602208	7
85	31551	6.854831437112	7
85	32097	6.954897271595	7
85	32651	7.05483310565	7
85	33197	7.15484693927	7
85	33743	7.254886772449	7
85	34289	7.354887605181	7
85	34835	7.45488843746	7
85	35381	7.55487626928	7
85	35927	7.654877100635	7
85	36473	7.754864931522	7
85	37019	7.854891761933	7
85	37565	7.954892591862	7
85	38119	8.054854421306	7
85	38665	8.154842250259	7
85	39211	8.254843078716	7
85	39757	8.354804906671	7
85	40303	8.45483173412	7
85	40849	8.554806561058	7
85	41395	8.654820387481	7
85	41941	8.754873213382	7
85	42487	8.854887038759	7
85	43033	8.954874863606	7
85	43587	9.054823688127	7
85	44133	9.154811512633	7
85	44679	9.254799337139	7
85	45225	9.354800161645	7
85	45771	9.454852986151	7
85	46317	9.554866810657	7
85	46863	9.654802635163	7
85	47409	9.754894459669	7
85	47955	9.854804284175	7
85	48501	9.954896108681	7
85	49055	10.054831933187	7
85	49601	10.154845757693	7
85	50147	10.254885582199	7
85	50693	10.354821406705	7
85	51239	10.454874231211	7
85	51785	10.554888055717	7
85	52331	10.654849880223	7
85	52877	10.754850704729	7
85	53423	10.854864529235	7
85	53969	10.954865353741	7
85	54523	11.054840178247	7
85	55069	11.154841002753	7
85	55615	11.254815827259	7
85	56161	11.354842651765	7
85	56707	11.454882476271	7
85	57253	11.554831300777	7
85	57799	11.654845125283	7
85	58345	11.754845949789	7
85	58891	11.854846774295	7
85	59437	11.954834598801	7
85	59991	12.054822423307	7
85	60537	12.154823247813	7
85	61083	12.254798072319	7
85	61629	12.354863896825	7
85	62175	12.454851721331	7
85	62721	12.554878545837	7
85	63267	12.654840370343	7
85	63813	12.754828194849	7
85	64359	12.854803019355	7
85	64905	12.954816843861	7
85	65459	13.054804668367	7
85	66005	13.154844492873	7
85	66551	13.254884317379	7
85	67097	13.354898141885	7
85	67643	13.454833966391	7
85	68189	13.554860790897	7
85	68735	13.654822615403	7
85	69281	13.754810439909	7
85	69827	13.854837264415	7
85	70373	13.954799088921	7
85	70927	14.054838913427	7
85	71473	14.154800737933	7
85	72019	14.254814562439	7
85	72565	14.354828386945	7
85	73111	14.454894211451	7
85	73657	14.554830035957	7
85	74203	14.654882860463	7
85	74749	14.754805684969	7
85	75295	14.854806509475	7
85	75841	14.954794333981	7
85	76395	15.054834158487	7
85	76941	15.154886982993	7
85	77487	15.254835807499	7
85	78033	15.354875632005	7
85	78579	15.454850456511	7
85	79125	15.554799281017	7
85	79671	15.654891105523	7
85	80217	15.754878930029	7
85	80763	15.854892754535	7
85	81309	15.954802579041	7
85	81863	16.054842403547	7
85	82409	16.154895228053	7
85	82955	16.254870052559	7
85	83501	16.354857877065	7
85	84047	16.454884701571	7
85	84593	16.554807526077	7
85	85139	16.654860350583	7
85	85685	16.754848175089	7
85	86231	16.854796999595	7
85	86777	16.954862824101	7
85	87331	17.054850648607	7
85	87877	17.154838473113	7
85	88423	17.254826297619	7
85	88969	17.354827122125	7
85	89515	17.454866946631	7
85	90061	17.554841771137	7
85	90607	17.654803595643	7
85	91153	17.754856420149	7
85	91699	17.854857244655	7
85	92245	17.954897069161	7
85	92799	18.054871893667	7
85	93345	18.154833718173	7
85	93891	18.254834542679	7
85	94437	18.354848367185	7
85	94983	18.454836191691	7
85	95529	18.554824016197	7
85	96075	18.654811840703	7
85	96621	18.754812665209	7
85	97167	18.854826489715	7
85	97713	18.954840314221	7
85	98267	19.054828138727	7
85	98813	19.154841963233	7
85	99359	19.254842787739	7
85	99905	19.354856612245	7
85	100451	19.454896436751	7
85	100997	19.554871261257	7
85	101543	19.654859085763	7
85	102089	19.754846910269	7
85	102635	19.854847734775	7
85	103181	19.954848559281	7
85	103735	20.054875383787	7
85	104281	20.154837208293	7
85	104827	20.254890032799	7
85	105373	20.354864857305	7
85	105919	20.454839681811	7
85	106465	20.554879506317	7
85	107011	20.654854330823	7
85	107557	20.754881155329	7
85	108103	20.854829979835	7
85	108649	20.954895804341	7
85	109203	21.054844628847	7
85	109749	21.154845453353	7
85	110295	21.254820277859	7
85	110841	21.354860102365	7
85	111387	21.454808926871	7
85	111933	21.554809751377	7
85	112479	21.654797575883	7
85	113025	21.754876400389	7
85	113571	21.854851224895	7
85	114117	21.954839049401	7
85	114671	22.054839873907	7
85	115217	22.154827698413	7
85	115763	22.254802522919	7
85	116309	22.354816347425	7
85	116855	22.454895171931	7
85	117401	22.554869996437	7
85	117947	22.654896820943	7
85	118493	22.754871645449	7
85	119039	22.854846469955	7
85	119585	22.954873294461	7
85	120139	23.054874118967	7
85	120685	23.154809943473	7
85	121231	23.254797767979	7
85	121777	23.354811592485	7
85	122323	23.454799416991	7
85	122869	23.554878241497	7
85	123415	23.654840066003	7
85	123961	23.754892890509	7
85	124507	23.854841715015	7
85	125053	23.954868539521	7
85	125607	24.054856364027	7
85	126153	24.154831188533	7
85	126699	24.254819013039	7
85	127245	24.354832837545	7
85	127791	24.454846662051	7
85	128337	24.554808486557	7
85	128883	24.654861311063	7
85	129429	24.754875135569	7
85	129975	24.854797960075	7
85	130521	24.954850784581	7
85	131075	25.054812609087	7
85	131621	25.154891433593	7
85	132167	25.254827258099	7
85	132713	25.354802082605	7
85	133259	25.454880907111	7
85	133805	25.554816731617	7
85	134351	25.654869556123	7
85	134897	25.754857380629	7
85	135443	25.854819205135	7
85	135989	25.954898029641	7
85	136543	26.054820854147	7
85	137089	26.154886678653	7
85	137635	26.254848503159	7
85	138181	26.354888327665	7
85	138727	26.454811152171	7
85	139273	26.554889976677	7
85	139819	26.654877801183	7
85	140365	26.754878625689	7
85	140911	26.854853450195	7
85	141457	26.954841274701	7
85	142011	27.054868099207	7
85	142557	27.154894923713	7
85	143103	27.254869748219	7
85	143649	27.354805572725	7
85	144195	27.454832397231	7
85	144741	27.554820221737	7
85	145287	27.654847046243	7
85	145833	27.754795870749	7
85	146379	27.854874695255	7
85	146925	27.954836519761	7
85	147479	28.054837344267	7
85	148025	28.154864168773	7
85	148571	28.254864993279	7
85	149117	28.354852817785	7
85	149663	28.454866642291	7
85	150209	28.554854466797	7
85	150755	28.654868291303	7
85	151301	28.754856115809	7
85	151847	28.854830940315	7
85	152393	28.954883764821	7
85	152947	29.054806589327	7
85	153493	29.154833413833	7
85	154039	29.254808238339	7
85	154585	29.354835062845	7
85	155131	29.454796887351	7
85	155677	29.554836711857	7
85	156223	29.654876536363	7
85	156769	29.754812360869	7
85	157315	29.854878185375	7
85	157861	29.954840009881	7
85	158415	30.054814834387	7
85	158961	30.154854658893	7
85	159507	30.254894483399	7
85	160053	30.354882307905	7
85	160599	30.454883132411	7
85	161145	30.554883956917	7
85	161691	30.654897781423	7
85	162237	30.754807605929	7
85	162783	30.854808430435	7
85	163329	30.954874254941	7
85	163883	31.054810079447	7
85	164429	31.154888903953	7
85	164975	31.254876728459	7
85	165521	31.354851552965	7
85	166067	31.454839377471	7
85	166613	31.554801201977	7
85	167159	31.654893026483	7
85	167705	31.754867850989	7
85	168251	31.854816675495	7
85	168797	31.954856500001	7
85	169351	32.054883324507	7
85	169897	32.154845149013	7
85	170443	32.254832973519	7
85	170989	32.354846798025	7
85	171535	32.454873622531	7
85	172081	32.554822447037	7
85	172627	32.654797271543	7
85	173173	32.754811096049	7
85	173719	32.854837920555	7
85	174265	32.954838745061	7
85	174819	33.054891569567	7
85	175365	33.154853394073	7
85	175911	33.254815218579	7
85	176457	33.354829043085	7
85	177003	33.454842867591	7
85	177549	33.554804692097	7
85	178095	33.654883516603	7
85	178641	33.754897341109	7
85	179187	33.854820165615	7
85	179733	33.954872990121	7
85	180287	34.054834814627	7
85	180833	34.154848639133	7
85	181379	34.254810463639	7
85	181925	34.354863288145	7
85	182471	34.454838112651	7
85	183017	34.554851937157	7
85	183563	34.654852761663	7
85	184109	34.754840586169	7
85	184655	34.854802410675	7
85	185201	34.954881235181	7
85	185755	35.054882059687	7
85	186301	35.154882884193	7
85	186847	35.254805708699	7
85	187393	35.354897533205	7
85	187939	35.454846357711	7
85	188485	35.554847182217	7
85	189031	35.654887006723	7
85	189577	35.754887831229	7
85	190123	35.854849655735	7
85	190669	35.954863480241	7
85	191223	36.054838304747	7
85	191769	36.154800129253	7
85	192315	36.254813953759	7
85	192861	36.354801778265	7
85	193407	36.454802602771	7
85	193953	36.554829427277	7
85	194499	36.654882251783	7
85	195045	36.754896076289	7
85	195591	36.854831900795	7
85	196137	36.954858725301	7
85	196691	37.054794549807	7
85	197237	37.154834374313	7
85	197783	37.254822198819	7
85	198329	37.354823023325	7
85	198875	37.454888847831	7
85	199421	37.554876672337	7
85	199967	37.654851496843	7
85	200513	37.754865321349	7
85	201059	37.854827145855	7
85	201605	37.954879970361	7
85	202159	38.054880794867	7
85	202705	38.154868619373	7
85	203251	38.254804443879	7
85	203797	38.354896268385	7
85	204343	38.454819092891	7
85	204889	38.554832917397	7
85	205435	38.654820741903	7
85	205981	38.754847566409	7
85	206527	38.854822390915	7
85	207073	38.954810215421	7
85	207627	39.054889039927	7
85	208173	39.154863864433	7
85	208719	39.254799688939	7
85	209265	39.354813513445	7
85	209811	39.454827337951	7
85	210357	39.554854162457	7
85	210903	39.654815986963	7
85	211449	39.754855811469	7
85	211995	39.854869635975	7
85	212541	39.954831460481	7
85	213095	40.054806284987	7
85	213641	40.154833109493	7
85	214187	40.254872933999	7
85	214733	40.354886758505	7
85	215279	40.454809583011	7
85	215825	40.554836407517	7
85	216371	40.654889232023	7
85	216917	40.754799056529	7
85	217463	40.854890881035	7
85	218009	40.954878705541	7
85	218563	41.054801530047	7
85	219109	41.154854354553	7
85	219655	41.254829179059	7
85	220201	41.354895003565	7
85	220747	41.454869828071	7
85	221293	41.554805652577	7
85	221839	41.654871477083	7
85	222385	41.754859301589	7
85	222931	41.854873126095	7
85	223477	41.954834950601	7
85	224031	42.054848775107	7
85	224577	42.154810599613	7
85	225123	42.254837424119	7
85	225669	42.354799248625	7
85	226215	42.454891073131	7
85	226761	42.554865897637	7
85	227307	42.654879722143	7
85	227853	42.754893546649	7
85	228399	42.854881371155	7
85	228945	42.954895195661	7
85	229499	43.054831020167	7
85	230045	43.154805844673	7
85	230591	43.254897669179	7
85	231137	43.354833493685	7
85	231683	43.454860318191	7
85	232229	43.554874142697	7
85	232775	43.654874967203	7
85	233321	43.754888791709	7
85	233867	43.854863616215	7
85	234413	43.954799440721	7
85	234967	44.054891265227	7
85	235513	44.154879089733	7
85	236059	44.254827914239	7
85	236605	44.354802738745	7
85	237151	44.454894563251	7
85	237697	44.554804387757	7
85	238243	44.654831212263	7
85	238789	44.754832036769	7
85	239335	44.854897861275	7
85	239881	44.954833685781	7
85	240435	45.054834510287	7
85	240981	45.154822334793	7
85	241527	45.254862159299	7
85	242073	45.354875983805	7
85	242619	45.454811808311	7
85	243165	45.554812632817	7
85	243711	45.654852457323	7
85	244257	45.754866281829	7
85	244803	45.854854106335	7
85	245349	45.954854930841	7
85	245903	46.054894755347	7
85	246449	46.154804579853	7
85	246995	46.254896404359	7
85	247541	46.354858228865	7
85	248087	46.454898053371	7
85	248633	46.554885877877	7
85	249179	46.654860702383	7
85	249725	46.754796526889	7
85	250271	46.854836351395	7
85	250817	46.954824175901	7
85	251371	47.054825000407	7
85	251917	47.154812824913	7
85	252463	47.254800649419	7
85	253009	47.354814473925	7
85	253555	47.454893298431	7
85	254101	47.554842122937	7
85	254647	47.654855947443	7
85	255193	47.754895771949	7
85	255739	47.854844596455	7
85	256285	47.954845420961	7
85	256839	48.054807245467	7
85	257385	48.154795069973	7
85	257931	48.254795894479	7
85	258477	48.354874718985	7
85	259023	48.454810543491	7
85	259569	48.554863367997	7
85	260115	48.654890192503	7
85	260661	48.754839017009	7
85	261207	48.854865841515	7
85	261753	48.954879666021	7
85	262307	49.054867490527	7
85	262853	49.154855315033	7
85	263399	49.254843139539	7
85	263945	49.354882964045	7
85	264491	49.454896788551	7
85	265037	49.554819613057	7
85	265583	49.654872437563	7
85	266129	49.754886262069	7
85	266675	49.854861086575	7
85	267221	49.954848911081	7
85	267775	50.054810735587	7
85	268321	50.154850560093	7
85	268867	50.254838384599	7
85	269413	50.354891209105	7
85	269959	50.454814033611	7
85	270505	50.554827858117	7
85	271051	50.654841682623	7
85	271597	50.754868507129	7
85	272143	50.854843331635	7
85	272689	50.954831156141	7
85	273243	51.054831980647	7
85	273789	51.154832805153	7
85	274335	51.254833629659	7
85	274881	51.354821454165	7
85	275427	51.454835278671	7
85	275973	51.554797103177	7
85	276519	51.654823927683	7
85	277065	51.754811752189	7
85	277611	51.854890576695	7
85	278157	51.954826401201	7
85	278711	52.054866225707	7
85	279257	52.154854050213	7
85	279803	52.254880874719	7
85	280349	52.354829699225	7
85	280895	52.454843523731	7
85	281441	52.554831348237	7
85	281987	52.654845172743	7
85	282533	52.754871997249	7
85	283079	52.854820821755	7
85	283625	52.954860646261	7
85	284179	53.054861470767	7
85	284725	53.154797295273	7
85	285271	53.254798119779	7
85	285817	53.354863944285	7
85	286363	53.454838768791	7
85	286909	53.554878593297	7
85	287455	53.654801417803	7
85	288001	53.754802242309	7
85	288547	53.854829066815	7
85	289093	53.954803891321	7
85	289647	54.054882715827	7
85	290193	54.154896540333	7
85	290739	54.254806364839	7
85	291285	54.354859189345	7
85	291831	54.454873013851	7
85	292377	54.554795838357	7
85	292923	54.654809662863	7
85	293469	54.754875487369	7
85	294015	54.854798311875	7
85	294561	54.954877136381	7
85	295115	55.054877960887	7
85	295661	55.154839785393	7
85	296207	55.254801609899	7
85	296753	55.354880434405	7
85	297299	55.454816258911	7
85	297845	55.554817083417	7
85	298391	55.654895907923	7
85	298937	55.754844732429	7
85	299483	55.854858556935	7
85	300029	55.954820381441	7
85	300583	56.054821205947	7
85	301129	56.154796030453	7
85	301675	56.254887854959	7
85	302221	56.354823679465	7
85	302767	56.454889503971	7
85	303313	56.554838328477	7
85	303859	56.654852152983	7
85	304405	56.754865977489	7
85	304951	56.854827801995	7
85	305497	56.954802626501	7
85	306051	57.054842451007	7
85	306597	57.154817275513	7
85	307143	57.254831100019	7
85	307689	57.354818924525	7
85	308235	57.454858749031	7
85	308781	57.554794573537	7
85	309327	57.654834398043	7
85	309873	57.754887222549	7
85	310419	57.854836047055	7
85	310965	57.954862871561	7
85	311519	58.054889696067	7
85	312065	58.154864520573	7
85	312611	58.254852345079	7
85	313157	58.354840169585	7
85	313703	58.454801994091	7
85	314249	58.554867818597	7
85	314795	58.654894643103	7
85	315341	58.754830467609	7
85	315887	58.854896292115	7
85	316433	58.954819116621	7
85	316987	59.054806941127	7
85	317533	59.154885765633	7
85	318079	59.254821590139	7
85	318625	59.354848414645	7
85	319171	59.454849239151	7
85	319717	59.554837063657	7
85	320263	59.654850888163	7
85	320809	59.754799712669	7
85	321355	59.854852537175	7
85	321901	59.954840361681	7
115	4901	2	0
115	10369	3	0
115	15837	4	0
115	21306	5	0
115	26774	6	0
115	32242	7	0
115	37710	8	0
115	43178	9	0
115	48646	10	0
115	54114	11	0
115	59582	12	0
115	65050	13	0
115	70518	14	0
115	75986	15	0
115	81454	16	0
115	86922	17	0
115	92390	18	0
115	97858	19	0
115	103326	20	0
115	108794	21	0
115	114262	22	0
115	119730	23	0
115	125198	24	0
115	130666	25	0
115	136134	26	0
115	141602	27	0
115	147070	28	0
115	152538	29	0
115	158006	30	0
115	163474	31	0
115	168942	32	0
115	174410	33	0
115	179878	34	0
115	185346	35	0
115	190814	36	0
115	196282	37	0
115	201750	38	0
115	207218	39	0
115	212686	40	0
115	218154	41	0
115	223622	42	0
115	229090	43	0
115	234558	44	0
115	240026	45	0
115	245494	46	0
115	250962	47	0
115	256430	48	0
115	261898	49	0
115	267366	50	0
115	272834	51	0
115	278302	52	0
115	283770	53	0
115	289238	54	0
115	294706	55	0
115	300174	56	0
115	305642	57	0
115	311110	58	0
115	316578	59	0
115	322046	60	0
114	4901	2	0.021849
114	10369	3	0.02497
114	15837	4	0.02497
114	21306	5	0.02497
114	26774	6	0.02497
114	32242	7	0.02497
114	37710	8	0.02497
114	43178	9	0.02497
114	48646	10	0.02497
114	54114	11	0.02497
114	59582	12	0.02497
114	65050	13	0.02497
114	70518	14	0.02497
114	75986	15	0.02497
114	81454	16	0.02497
114	86922	17	0.02497
114	92390	18	0.02497
114	97858	19	0.02497
114	103326	20	0.02497
114	108794	21	0.02497
114	114262	22	0.02497
114	119730	23	0.02497
114	125198	24	0.02497
114	130666	25	0.02497
114	136134	26	0.02497
114	141602	27	0.02497
114	147070	28	0.02497
114	152538	29	0.02497
114	158006	30	0.02497
114	163474	31	0.02497
114	168942	32	0.02497
114	174410	33	0.02497
114	179878	34	0.02497
114	185346	35	0.02497
114	190814	36	0.02497
114	196282	37	0.02497
114	201750	38	0.02497
114	207218	39	0.02497
114	212686	40	0.02497
114	218154	41	0.02497
114	223622	42	0.02497
114	229090	43	0.02497
114	234558	44	0.02497
114	240026	45	0.02497
114	245494	46	0.02497
114	250962	47	0.02497
114	256430	48	0.02497
114	261898	49	0.02497
114	267366	50	0.02497
114	272834	51	0.02497
114	278302	52	0.02497
114	283770	53	0.02497
114	289238	54	0.02497
114	294706	55	0.02497
114	300174	56	0.02497
114	305642	57	0.02497
114	311110	58	0.02497
114	316578	59	0.02497
114	322046	60	0.02497
113	4901	2	7
113	10369	3	7
113	15837	4	7
113	21306	5	7
113	26774	6	7
113	32242	7	7
113	37710	8	7
113	43178	9	7
113	48646	10	7
113	54114	11	7
113	59582	12	7
113	65050	13	7
113	70518	14	7
113	75986	15	7
113	81454	16	7
113	86922	17	7
113	92390	18	7
113	97858	19	7
113	103326	20	7
113	108794	21	7
113	114262	22	7
113	119730	23	7
113	125198	24	7
113	130666	25	7
113	136134	26	7
113	141602	27	7
113	147070	28	7
113	152538	29	7
113	158006	30	7
113	163474	31	7
113	168942	32	7
113	174410	33	7
113	179878	34	7
113	185346	35	7
113	190814	36	7
113	196282	37	7
113	201750	38	7
113	207218	39	7
113	212686	40	7
113	218154	41	7
113	223622	42	7
113	229090	43	7
113	234558	44	7
113	240026	45	7
113	245494	46	7
113	250962	47	7
113	256430	48	7
113	261898	49	7
113	267366	50	7
113	272834	51	7
113	278302	52	7
113	283770	53	7
113	289238	54	7
113	294706	55	7
113	300174	56	7
113	305642	57	7
113	311110	58	7
113	316578	59	7
113	322046	60	7

