version 2
run SinusoidalNoGui-1-20200515-19:07:27-5743
attr configname SinusoidalNoGui
attr datetime 20200515-19:07:27
attr experiment SinusoidalNoGui
attr inifile omnetpp.ini
attr iterationvars "$nCars=8, $platoonSize=8, $nLanes=1, $ploegH=0.5, $controller=0, $sController=\"ACC\", $headway=1.2, $leaderHeadway=1.2, $leaderSpeed=100, $beaconInterval=0.1, $priority=4, $packetSize=200, $0=2, $1=1.2"
attr iterationvarsf nCars=8,platoonSize=8,nLanes=1,ploegH=0.5,controller=0,sController=ACC,headway=1.2,leaderHeadway=1.2,leaderSpeed=100,beaconInterval=0.1,priority=4,packetSize=200,2,1.2-
attr measurement "$nCars=8, $platoonSize=8, $nLanes=1, $ploegH=0.5, $controller=0, $sController=\"ACC\", $headway=1.2, $leaderHeadway=1.2, $leaderSpeed=100, $beaconInterval=0.1, $priority=4, $packetSize=200, $0=2, $1=1.2"
attr network Highway
attr processid 5743
attr repetition 0
attr replication #0
attr resultdir results
attr runnumber 1
attr seedset 0
itervar beaconInterval 0.1
itervar controller 0
itervar headway 1.2
itervar leaderHeadway 1.2
itervar leaderSpeed 100
itervar nCars 8
itervar nLanes 1
itervar packetSize 200
itervar platoonSize 8
itervar ploegH 0.5
itervar priority 4
itervar sController "\"ACC\""
param *.manager.command "\"sumo\""
param *.manager.ignoreGuiCommands true
param *.manager.command "\"sumo-gui\""
param *.node[*].scenario_type "\"SinusoidalScenario\""
param *.node[*].scenario.leaderOscillationFrequency "0.2 Hz"
param *.node[*].scenario.oscillationAmplitude "10 kmph"
param *.node[*].scenario.startOscillating "5 s"
param *.playgroundSizeX 65000m
param *.playgroundSizeY 25000m
param *.playgroundSizeZ 50m
param *.annotations.draw false
param *.obstacles.debug false
param *.world.useTorus false
param *.world.use2D false
param *.manager.updateInterval 0.01s
param *.manager.host "\"localhost\""
param *.manager.moduleType "\"org.car2x.plexe.PlatoonCar\""
param *.manager.moduleName "\"node\""
param *.manager.moduleDisplayString "\"\""
param *.manager.autoShutdown true
param *.manager.margin 25
param *.connectionManager.sendDirect true
param *.connectionManager.maxInterfDist 2600m
param *.connectionManager.drawMaxIntfDist false
param *.**.nic.mac1609_4.useServiceChannel false
param *.**.nic.mac1609_4.txPower 100mW
param *.**.nic.mac1609_4.bitrate 6Mbps
param *.**.nic.mac1609_4.useAcks true
param *.**.nic.mac1609_4.ackErrorRate 0.0
param *.**.nic.mac1609_4.frameErrorRate 0.0
param *.**.nic.phy80211p.minPowerLevel -94dBm
param *.**.nic.phy80211p.maxTXPower 100mW
param *.**.nic.phy80211p.useNoiseFloor true
param *.**.nic.phy80211p.noiseFloor -95dBm
param *.**.nic.phy80211p.decider "xmldoc(\"config.xml\")"
param *.**.nic.phy80211p.analogueModels "xmldoc(\"config.xml\")"
param *.**.nic.phy80211p.usePropagationDelay true
param *.node[*].mobility.x 0
param *.node[*].mobility.y 0
param *.node[*].mobility.z 1.895
param **.seed 0
param *.manager.configFile "\"./sumocfg/freeway.sumo.cfg\""
param *.manager.launchConfig "xmldoc(\"./sumocfg/freeway.launchd.xml\")"
param **.numberOfCars 8
param **.numberOfCarsPerPlatoon 8
param **.numberOfLanes 1
param *.node[*].helper_type "\"PositionHelper\""
param *.node[*].scenario.caccC1 0.5
param *.node[*].scenario.caccXi 1
param *.node[*].scenario.caccOmegaN "0.2 Hz"
param *.node[*].scenario.caccSpacing "5 m"
param *.node[*].scenario.engineTau "0.5 s"
param *.node[*].scenario.ploegH 0.5s
param *.node[*].scenario.ploegKp 0.2
param *.node[*].scenario.ploegKd 0.7
param *.node[*].scenario.useRealisticEngine false
param *.node[*].scenario.useControllerAcceleration true
param *.node[*].scenario.nLanes 1
param **.numericController 0
param *.node[*].scenario.controller "\"ACC\""
param **.headway 1.2s
param *.node[*].scenario.accHeadway 1.2s
param *.node[*].scenario.leaderHeadway 1.2s
param *.node[*].scenario.leaderSpeed 100kmph
param *.node[*].appl_type "\"SimplePlatooningApp\""
param *.node[*].protocol_type "\"SimplePlatooningBeaconing\""
param *.node[*].prot.beaconingInterval 0.1s
param *.node[*].prot.priority 4
param *.node[*].prot.packetSize 200
param *.node[*].unicast.packetLossRate 0
param **.traffic_type "\"PlatoonsTrafficManager\""
param **.traffic.platoonInsertTime "1 s"
param **.traffic.platoonInsertSpeed 100kmph
param **.traffic.nCars 8
param **.traffic.platoonSize 8
param **.traffic.nLanes 1
param **.traffic.platooningVType "\"vtypeauto\""
param **.traffic.platoonInsertDistance 2m
param **.traffic.platoonInsertHeadway 1.2s
param **.traffic.platoonLeaderHeadway 1.2s

vector 0 Highway.node[0].appl distance ETV
vector 1 Highway.node[0].appl relativeSpeed ETV
vector 2 Highway.node[0].appl nodeId ETV
vector 3 Highway.node[0].appl acceleration ETV
vector 4 Highway.node[0].appl controllerAcceleration ETV
vector 5 Highway.node[0].appl speed ETV
vector 6 Highway.node[0].appl posx ETV
vector 7 Highway.node[0].appl posy ETV
vector 8 Highway.node[1].appl distance ETV
vector 9 Highway.node[1].appl relativeSpeed ETV
vector 10 Highway.node[1].appl nodeId ETV
vector 11 Highway.node[1].appl acceleration ETV
vector 12 Highway.node[1].appl controllerAcceleration ETV
vector 13 Highway.node[1].appl speed ETV
vector 14 Highway.node[1].appl posx ETV
vector 15 Highway.node[1].appl posy ETV
vector 16 Highway.node[2].appl distance ETV
vector 17 Highway.node[2].appl relativeSpeed ETV
vector 18 Highway.node[2].appl nodeId ETV
vector 19 Highway.node[2].appl acceleration ETV
vector 20 Highway.node[2].appl controllerAcceleration ETV
vector 21 Highway.node[2].appl speed ETV
vector 22 Highway.node[2].appl posx ETV
vector 23 Highway.node[2].appl posy ETV
vector 24 Highway.node[3].appl distance ETV
vector 25 Highway.node[3].appl relativeSpeed ETV
vector 26 Highway.node[3].appl nodeId ETV
vector 27 Highway.node[3].appl acceleration ETV
vector 28 Highway.node[3].appl controllerAcceleration ETV
vector 29 Highway.node[3].appl speed ETV
vector 30 Highway.node[3].appl posx ETV
vector 31 Highway.node[3].appl posy ETV
vector 32 Highway.node[4].appl distance ETV
vector 33 Highway.node[4].appl relativeSpeed ETV
vector 34 Highway.node[4].appl nodeId ETV
vector 35 Highway.node[4].appl acceleration ETV
vector 36 Highway.node[4].appl controllerAcceleration ETV
vector 37 Highway.node[4].appl speed ETV
vector 38 Highway.node[4].appl posx ETV
vector 39 Highway.node[4].appl posy ETV
vector 40 Highway.node[5].appl distance ETV
vector 41 Highway.node[5].appl relativeSpeed ETV
vector 42 Highway.node[5].appl nodeId ETV
vector 43 Highway.node[5].appl acceleration ETV
vector 44 Highway.node[5].appl controllerAcceleration ETV
vector 45 Highway.node[5].appl speed ETV
vector 46 Highway.node[5].appl posx ETV
vector 47 Highway.node[5].appl posy ETV
vector 48 Highway.node[6].appl distance ETV
vector 49 Highway.node[6].appl relativeSpeed ETV
vector 50 Highway.node[6].appl nodeId ETV
vector 51 Highway.node[6].appl acceleration ETV
vector 52 Highway.node[6].appl controllerAcceleration ETV
vector 53 Highway.node[6].appl speed ETV
vector 54 Highway.node[6].appl posx ETV
vector 55 Highway.node[6].appl posy ETV
vector 56 Highway.node[7].appl distance ETV
vector 57 Highway.node[7].appl relativeSpeed ETV
vector 58 Highway.node[7].appl nodeId ETV
vector 59 Highway.node[7].appl acceleration ETV
vector 60 Highway.node[7].appl controllerAcceleration ETV
vector 61 Highway.node[7].appl speed ETV
vector 62 Highway.node[7].appl posx ETV
vector 63 Highway.node[7].appl posy ETV
vector 64 Highway.node[3].prot frontDelay ETV
vector 65 Highway.node[3].prot frontDelayId ETV
vector 66 Highway.node[2].prot frontDelay ETV
vector 67 Highway.node[2].prot frontDelayId ETV
vector 68 Highway.node[7].prot frontDelay ETV
vector 69 Highway.node[7].prot frontDelayId ETV
vector 70 Highway.node[1].prot leaderDelay ETV
vector 71 Highway.node[1].prot leaderDelayId ETV
vector 72 Highway.node[1].prot frontDelay ETV
vector 73 Highway.node[1].prot frontDelayId ETV
vector 74 Highway.node[2].prot leaderDelay ETV
vector 75 Highway.node[2].prot leaderDelayId ETV
vector 76 Highway.node[3].prot leaderDelay ETV
vector 77 Highway.node[3].prot leaderDelayId ETV
vector 78 Highway.node[4].prot leaderDelay ETV
vector 79 Highway.node[4].prot leaderDelayId ETV
vector 80 Highway.node[5].prot leaderDelay ETV
vector 81 Highway.node[5].prot leaderDelayId ETV
vector 82 Highway.node[6].prot leaderDelay ETV
vector 83 Highway.node[6].prot leaderDelayId ETV
vector 84 Highway.node[7].prot leaderDelay ETV
vector 85 Highway.node[7].prot leaderDelayId ETV
vector 86 Highway.node[5].prot frontDelay ETV
vector 87 Highway.node[5].prot frontDelayId ETV
vector 88 Highway.node[4].prot frontDelay ETV
vector 89 Highway.node[4].prot frontDelayId ETV
vector 90 Highway.node[6].prot frontDelay ETV
vector 91 Highway.node[6].prot frontDelayId ETV
vector 92 Highway.node[0].prot nodeId ETV
vector 93 Highway.node[0].prot busyTime ETV
vector 94 Highway.node[0].prot collisions ETV
vector 95 Highway.node[1].prot nodeId ETV
vector 96 Highway.node[1].prot busyTime ETV
vector 97 Highway.node[1].prot collisions ETV
vector 98 Highway.node[2].prot nodeId ETV
vector 99 Highway.node[2].prot busyTime ETV
vector 100 Highway.node[2].prot collisions ETV
vector 101 Highway.node[3].prot nodeId ETV
vector 102 Highway.node[3].prot busyTime ETV
vector 103 Highway.node[3].prot collisions ETV
vector 104 Highway.node[4].prot nodeId ETV
vector 105 Highway.node[4].prot busyTime ETV
vector 106 Highway.node[4].prot collisions ETV
vector 107 Highway.node[5].prot nodeId ETV
vector 108 Highway.node[5].prot busyTime ETV
vector 109 Highway.node[5].prot collisions ETV
vector 110 Highway.node[6].prot nodeId ETV
vector 111 Highway.node[6].prot busyTime ETV
vector 112 Highway.node[6].prot collisions ETV
vector 113 Highway.node[7].prot nodeId ETV
vector 114 Highway.node[7].prot busyTime ETV
vector 115 Highway.node[7].prot collisions ETV
4	113	1.11	-0.00218518
4	659	1.21	-0.00213419
4	1205	1.31	-0.00205408
4	1751	1.41	-0.00195152
4	2297	1.51	-0.00183238
4	2843	1.61	-0.00170178
4	3389	1.71	-0.00156412
4	3935	1.81	-0.00142314
4	4481	1.91	-0.00128196
4	5035	2.01	-0.00114315
4	5581	2.11	-0.00100877
4	6127	2.21	-0.000880447
4	6673	2.31	-0.000759381
4	7219	2.41	-0.000646445
4	7765	2.51	-0.000542204
4	8311	2.61	-0.000446965
4	8857	2.71	-0.000360819
4	9403	2.81	-0.000283678
4	9949	2.91	-0.000215307
4	10503	3.01	-0.000155357
4	11049	3.11	-0.000103391
4	11595	3.21	-5.89069e-05
4	12141	3.31	-2.13575e-05
4	12687	3.41	9.82919e-06
4	13233	3.51	3.52368e-05
4	13779	3.61	5.54479e-05
4	14325	3.71	7.10335e-05
4	14871	3.81	8.25451e-05
4	15417	3.91	9.05081e-05
4	15971	4.01	9.54172e-05
4	16517	4.11	9.7733e-05
4	17063	4.21	9.78798e-05
4	17609	4.31	9.62447e-05
4	18155	4.41	9.31771e-05
4	18701	4.51	8.89894e-05
4	19247	4.61	8.39579e-05
4	19793	4.71	7.83245e-05
4	20339	4.81	7.22983e-05
4	20885	4.91	6.6058e-05
4	21440	5.01	5.9754e-05
4	21987	5.11	0.348154
4	22534	5.21	0.687312
4	23081	5.31	1.00645
4	23628	5.41	1.29637
4	24175	5.51	1.5
4	24722	5.61	1.5
4	25269	5.71	1.5
4	25816	5.81	1.5
4	26363	5.91	1.5
4	26918	6.01	1.5
4	27465	6.11	1.5
4	28012	6.21	1.5
4	28559	6.31	1.5
4	29106	6.41	1.5
4	29653	6.51	1.49192
4	30200	6.61	1.22651
4	30747	6.71	0.923018
4	31294	6.81	0.589086
4	31841	6.91	0.232356
4	32396	7.01	-0.139213
4	32943	7.11	-0.517613
4	33490	7.21	-0.895148
4	34037	7.31	-1.26397
4	34584	7.41	-1.5
4	35131	7.51	-1.5
4	35678	7.61	-1.5
4	36225	7.71	-1.5
4	36772	7.81	-1.5
4	37319	7.91	-1.5
4	37874	8.01	-1.5
4	38421	8.11	-1.5
4	38968	8.21	-1.5
4	39515	8.31	-1.5
4	40062	8.41	-1.5
4	40609	8.51	-1.5
4	41156	8.61	-1.5
4	41703	8.71	-1.5
4	42250	8.81	-1.5
4	42797	8.91	-1.5
4	43352	9.01	-1.5
4	43899	9.11	-1.5
4	44446	9.21	-1.5
4	44993	9.31	-1.5
4	45540	9.41	-1.5
4	46087	9.51	-1.17849
4	46634	9.61	-0.739823
4	47181	9.71	-0.290475
4	47728	9.81	0.158711
4	48275	9.91	0.597343
4	48830	10.01	1.01627
4	49377	10.11	1.40688
4	49924	10.21	1.5
4	50471	10.31	1.5
4	51018	10.41	1.5
4	51565	10.51	1.5
4	52112	10.61	1.5
4	52659	10.71	1.5
4	53206	10.81	1.5
4	53753	10.91	1.5
4	54308	11.01	1.5
4	54855	11.11	1.5
4	55402	11.21	1.5
4	55949	11.31	1.5
4	56496	11.41	1.5
4	57043	11.51	1.5
4	57590	11.61	1.5
4	58137	11.71	1.5
4	58684	11.81	1.5
4	59231	11.91	1.14206
4	59786	12.01	0.732698
4	60333	12.11	0.307654
4	60880	12.21	-0.122946
4	61427	12.31	-0.549155
4	61974	12.41	-0.962117
4	62521	12.51	-1.35327
4	63068	12.61	-1.5
4	63615	12.71	-1.5
4	64162	12.81	-1.5
4	64709	12.91	-1.5
4	65264	13.01	-1.5
4	65811	13.11	-1.5
4	66358	13.21	-1.5
4	66905	13.31	-1.5
4	67452	13.41	-1.5
4	67999	13.51	-1.5
4	68546	13.61	-1.5
4	69093	13.71	-1.5
4	69640	13.81	-1.5
4	70187	13.91	-1.5
4	70742	14.01	-1.5
4	71289	14.11	-1.5
4	71836	14.21	-1.5
4	72383	14.31	-1.5
4	72930	14.41	-1.30079
4	73477	14.51	-0.888396
4	74024	14.61	-0.457896
4	74571	14.71	-0.0203058
4	75118	14.81	0.414388
4	75665	14.91	0.836546
4	76220	15.01	1.23767
4	76767	15.11	1.5
4	77314	15.21	1.5
4	77861	15.31	1.5
4	78408	15.41	1.5
4	78955	15.51	1.5
4	79502	15.61	1.5
4	80049	15.71	1.5
4	80596	15.81	1.5
4	81143	15.91	1.5
4	81698	16.01	1.5
4	82245	16.11	1.5
4	82792	16.21	1.5
4	83339	16.31	1.5
4	83886	16.41	1.5
4	84433	16.51	1.5
4	84980	16.61	1.5
4	85527	16.71	1.5
4	86074	16.81	1.5
4	86621	16.91	1.24512
4	87176	17.01	0.833462
4	87723	17.11	0.404725
4	88270	17.21	-0.0306459
4	88817	17.31	-0.462424
4	89364	17.41	-0.88151
4	89911	17.51	-1.27913
4	90458	17.61	-1.5
4	91005	17.71	-1.5
4	91552	17.81	-1.5
4	92099	17.91	-1.5
4	92654	18.01	-1.5
4	93201	18.11	-1.5
4	93748	18.21	-1.5
4	94295	18.31	-1.5
4	94842	18.41	-1.5
4	95389	18.51	-1.5
4	95936	18.61	-1.5
4	96483	18.71	-1.5
4	97030	18.81	-1.5
4	97577	18.91	-1.5
4	98132	19.01	-1.5
4	98679	19.11	-1.5
4	99226	19.21	-1.5
4	99773	19.31	-1.5
4	100320	19.41	-1.26568
4	100867	19.51	-0.853817
4	101414	19.61	-0.424368
4	101961	19.71	0.0117583
4	102508	19.81	0.444676
4	103055	19.91	0.864834
4	103610	20.01	1.26381
4	104157	20.11	1.5
4	104704	20.21	1.5
4	105251	20.31	1.5
4	105798	20.41	1.5
4	106345	20.51	1.5
4	106892	20.61	1.5
4	107439	20.71	1.5
4	107986	20.81	1.5
4	108533	20.91	1.5
4	109088	21.01	1.5
4	109635	21.11	1.5
4	110182	21.21	1.5
4	110729	21.31	1.5
4	111276	21.41	1.5
4	111823	21.51	1.5
4	112370	21.61	1.5
4	112917	21.71	1.5
4	113464	21.81	1.5
4	114011	21.91	1.25809
4	114566	22.01	0.846238
4	115113	22.11	0.417115
4	115660	22.21	-0.0187954
4	116207	22.31	-0.451228
4	116754	22.41	-0.871052
4	117301	22.51	-1.26946
4	117848	22.61	-1.5
4	118395	22.71	-1.5
4	118942	22.81	-1.5
4	119489	22.91	-1.5
4	120044	23.01	-1.5
4	120591	23.11	-1.5
4	121138	23.21	-1.5
4	121685	23.31	-1.5
4	122232	23.41	-1.5
4	122779	23.51	-1.5
4	123326	23.61	-1.5
4	123873	23.71	-1.5
4	124420	23.81	-1.5
4	124967	23.91	-1.5
4	125522	24.01	-1.5
4	126069	24.11	-1.5
4	126616	24.21	-1.5
4	127163	24.31	-1.5
4	127710	24.41	-1.26088
4	128257	24.51	-0.849086
4	128804	24.61	-0.41978
4	129351	24.71	0.0161479
4	129898	24.81	0.448824
4	130445	24.91	0.868709
4	131000	25.01	1.26739
4	131547	25.11	1.5
4	132094	25.21	1.5
4	132641	25.31	1.5
4	133188	25.41	1.5
4	133735	25.51	1.5
4	134282	25.61	1.5
4	134829	25.71	1.5
4	135376	25.81	1.5
4	135923	25.91	1.5
4	136478	26.01	1.5
4	137025	26.11	1.5
4	137572	26.21	1.5
4	138119	26.31	1.5
4	138666	26.41	1.5
4	139213	26.51	1.5
4	139760	26.61	1.5
4	140307	26.71	1.5
4	140854	26.81	1.5
4	141401	26.91	1.25987
4	141956	27.01	0.847993
4	142503	27.11	0.418817
4	143050	27.21	-0.0171665
4	143597	27.31	-0.449689
4	144144	27.41	-0.869614
4	144691	27.51	-1.26813
4	145238	27.61	-1.5
4	145785	27.71	-1.5
4	146332	27.81	-1.5
4	146879	27.91	-1.5
4	147434	28.01	-1.5
4	147981	28.11	-1.5
4	148528	28.21	-1.5
4	149075	28.31	-1.5
4	149622	28.41	-1.5
4	150169	28.51	-1.5
4	150716	28.61	-1.5
4	151263	28.71	-1.5
4	151810	28.81	-1.5
4	152357	28.91	-1.5
4	152912	29.01	-1.5
4	153459	29.11	-1.5
4	154006	29.21	-1.5
4	154553	29.31	-1.5
4	155100	29.41	-1.26022
4	155647	29.51	-0.848435
4	156194	29.61	-0.419148
4	156741	29.71	0.0167524
4	157288	29.81	0.449395
4	157835	29.91	0.869242
4	158390	30.01	1.26789
4	158937	30.11	1.5
4	159484	30.21	1.5
4	160031	30.31	1.5
4	160578	30.41	1.5
4	161125	30.51	1.5
4	161672	30.61	1.5
4	162219	30.71	1.5
4	162766	30.81	1.5
4	163313	30.91	1.5
4	163868	31.01	1.5
4	164415	31.11	1.5
4	164962	31.21	1.5
4	165509	31.31	1.5
4	166056	31.41	1.5
4	166603	31.51	1.5
4	167150	31.61	1.5
4	167697	31.71	1.5
4	168244	31.81	1.5
4	168791	31.91	1.26012
4	169346	32.01	0.848235
4	169893	32.11	0.419052
4	170440	32.21	-0.0169422
4	170987	32.31	-0.449477
4	171534	32.41	-0.869416
4	172081	32.51	-1.26795
4	172628	32.61	-1.5
4	173175	32.71	-1.5
4	173722	32.81	-1.5
4	174269	32.91	-1.5
4	174824	33.01	-1.5
4	175371	33.11	-1.5
4	175918	33.21	-1.5
4	176465	33.31	-1.5
4	177012	33.41	-1.5
4	177559	33.51	-1.5
4	178106	33.61	-1.5
4	178653	33.71	-1.5
4	179200	33.81	-1.5
4	179747	33.91	-1.5
4	180302	34.01	-1.5
4	180849	34.11	-1.5
4	181396	34.21	-1.5
4	181943	34.31	-1.5
4	182490	34.41	-1.26013
4	183037	34.51	-0.848345
4	183584	34.61	-0.419061
4	184131	34.71	0.0168356
4	184678	34.81	0.449474
4	185225	34.91	0.869316
4	185780	35.01	1.26795
4	186327	35.11	1.5
4	186874	35.21	1.5
4	187421	35.31	1.5
4	187968	35.41	1.5
4	188515	35.51	1.5
4	189062	35.61	1.5
4	189609	35.71	1.5
4	190156	35.81	1.5
4	190703	35.91	1.5
4	191258	36.01	1.5
4	191805	36.11	1.5
4	192352	36.21	1.5
4	192899	36.31	1.5
4	193446	36.41	1.5
4	193993	36.51	1.5
4	194540	36.61	1.5
4	195087	36.71	1.5
4	195634	36.81	1.5
4	196181	36.91	1.26015
4	196736	37.01	0.848268
4	197283	37.11	0.419084
4	197830	37.21	-0.0169113
4	198377	37.31	-0.449448
4	198924	37.41	-0.869389
4	199471	37.51	-1.26793
4	200018	37.61	-1.5
4	200565	37.71	-1.5
4	201112	37.81	-1.5
4	201659	37.91	-1.5
4	202214	38.01	-1.5
4	202761	38.11	-1.5
4	203308	38.21	-1.5
4	203855	38.31	-1.5
4	204402	38.41	-1.5
4	204949	38.51	-1.5
4	205496	38.61	-1.5
4	206043	38.71	-1.5
4	206590	38.81	-1.5
4	207137	38.91	-1.5
4	207692	39.01	-1.5
4	208239	39.11	-1.5
4	208786	39.21	-1.5
4	209333	39.31	-1.5
4	209880	39.41	-1.26012
4	210427	39.51	-0.848333
4	210974	39.61	-0.419049
4	211521	39.71	0.0168471
4	212068	39.81	0.449485
4	212615	39.91	0.869326
4	213170	40.01	1.26796
4	213717	40.11	1.5
4	214264	40.21	1.5
4	214811	40.31	1.5
4	215358	40.41	1.5
4	215905	40.51	1.5
4	216452	40.61	1.5
4	216999	40.71	1.5
4	217546	40.81	1.5
4	218093	40.91	1.5
4	218648	41.01	1.5
4	219195	41.11	1.5
4	219742	41.21	1.5
4	220289	41.31	1.5
4	220836	41.41	1.5
4	221383	41.51	1.5
4	221930	41.61	1.5
4	222477	41.71	1.5
4	223024	41.81	1.5
4	223571	41.91	1.26016
4	224126	42.01	0.848273
4	224673	42.11	0.419089
4	225220	42.21	-0.0169071
4	225767	42.31	-0.449444
4	226314	42.41	-0.869385
4	226861	42.51	-1.26792
4	227408	42.61	-1.5
4	227955	42.71	-1.5
4	228502	42.81	-1.5
4	229049	42.91	-1.5
4	229604	43.01	-1.5
4	230151	43.11	-1.5
4	230698	43.21	-1.5
4	231245	43.31	-1.5
4	231792	43.41	-1.5
4	232339	43.51	-1.5
4	232886	43.61	-1.5
4	233433	43.71	-1.5
4	233980	43.81	-1.5
4	234527	43.91	-1.5
4	235082	44.01	-1.5
4	235629	44.11	-1.5
4	236176	44.21	-1.5
4	236723	44.31	-1.5
4	237270	44.41	-1.26011
4	237817	44.51	-0.848331
4	238364	44.61	-0.419047
4	238911	44.71	0.0168487
4	239458	44.81	0.449486
4	240005	44.91	0.869327
4	240560	45.01	1.26796
4	241107	45.11	1.5
4	241654	45.21	1.5
4	242201	45.31	1.5
4	242748	45.41	1.5
4	243295	45.51	1.5
4	243842	45.61	1.5
4	244389	45.71	1.5
4	244936	45.81	1.5
4	245483	45.91	1.5
4	246038	46.01	1.5
4	246585	46.11	1.5
4	247132	46.21	1.5
4	247679	46.31	1.5
4	248226	46.41	1.5
4	248773	46.51	1.5
4	249320	46.61	1.5
4	249867	46.71	1.5
4	250414	46.81	1.5
4	250961	46.91	1.26016
4	251516	47.01	0.848273
4	252063	47.11	0.419089
4	252610	47.21	-0.0169065
4	253157	47.31	-0.449444
4	253704	47.41	-0.869385
4	254251	47.51	-1.26792
4	254798	47.61	-1.5
4	255345	47.71	-1.5
4	255892	47.81	-1.5
4	256439	47.91	-1.5
4	256994	48.01	-1.5
4	257541	48.11	-1.5
4	258088	48.21	-1.5
4	258635	48.31	-1.5
4	259182	48.41	-1.5
4	259729	48.51	-1.5
4	260276	48.61	-1.5
4	260823	48.71	-1.5
4	261370	48.81	-1.5
4	261917	48.91	-1.5
4	262472	49.01	-1.5
4	263019	49.11	-1.5
4	263566	49.21	-1.5
4	264113	49.31	-1.5
4	264660	49.41	-1.26011
4	265207	49.51	-0.848331
4	265754	49.61	-0.419047
4	266301	49.71	0.0168489
4	266848	49.81	0.449486
4	267395	49.91	0.869327
4	267950	50.01	1.26797
4	268497	50.11	1.5
4	269044	50.21	1.5
4	269591	50.31	1.5
4	270138	50.41	1.5
4	270685	50.51	1.5
4	271232	50.61	1.5
4	271779	50.71	1.5
4	272326	50.81	1.5
4	272873	50.91	1.5
4	273428	51.01	1.5
4	273975	51.11	1.5
4	274522	51.21	1.5
4	275069	51.31	1.5
4	275616	51.41	1.5
4	276163	51.51	1.5
4	276710	51.61	1.5
4	277257	51.71	1.5
4	277804	51.81	1.5
4	278351	51.91	1.26016
4	278906	52.01	0.848273
4	279453	52.11	0.419089
4	280000	52.21	-0.0169064
4	280547	52.31	-0.449444
4	281094	52.41	-0.869385
4	281641	52.51	-1.26792
4	282188	52.61	-1.5
4	282735	52.71	-1.5
4	283282	52.81	-1.5
4	283829	52.91	-1.5
4	284384	53.01	-1.5
4	284931	53.11	-1.5
4	285478	53.21	-1.5
4	286025	53.31	-1.5
4	286572	53.41	-1.5
4	287119	53.51	-1.5
4	287666	53.61	-1.5
4	288213	53.71	-1.5
4	288760	53.81	-1.5
4	289307	53.91	-1.5
4	289862	54.01	-1.5
4	290409	54.11	-1.5
4	290956	54.21	-1.5
4	291503	54.31	-1.5
4	292050	54.41	-1.26011
4	292597	54.51	-0.848331
4	293144	54.61	-0.419047
4	293691	54.71	0.0168489
4	294238	54.81	0.449486
4	294785	54.91	0.869327
4	295340	55.01	1.26797
4	295887	55.11	1.5
4	296434	55.21	1.5
4	296981	55.31	1.5
4	297528	55.41	1.5
4	298075	55.51	1.5
4	298622	55.61	1.5
4	299169	55.71	1.5
4	299716	55.81	1.5
4	300263	55.91	1.5
4	300818	56.01	1.5
4	301365	56.11	1.5
4	301912	56.21	1.5
4	302459	56.31	1.5
4	303006	56.41	1.5
4	303553	56.51	1.5
4	304100	56.61	1.5
4	304647	56.71	1.5
4	305194	56.81	1.5
4	305741	56.91	1.26016
4	306296	57.01	0.848274
4	306843	57.11	0.419089
4	307390	57.21	-0.0169064
4	307937	57.31	-0.449444
4	308484	57.41	-0.869385
4	309031	57.51	-1.26792
4	309578	57.61	-1.5
4	310125	57.71	-1.5
4	310672	57.81	-1.5
4	311219	57.91	-1.5
4	311774	58.01	-1.5
4	312321	58.11	-1.5
4	312868	58.21	-1.5
4	313415	58.31	-1.5
4	313962	58.41	-1.5
4	314509	58.51	-1.5
4	315056	58.61	-1.5
4	315603	58.71	-1.5
4	316150	58.81	-1.5
4	316697	58.91	-1.5
4	317252	59.01	-1.5
4	317799	59.11	-1.5
4	318346	59.21	-1.5
4	318893	59.31	-1.5
4	319440	59.41	-1.26011
4	319987	59.51	-0.848331
4	320534	59.61	-0.419047
4	321081	59.71	0.0168489
4	321628	59.81	0.449486
4	322175	59.91	0.869327
3	113	1.11	-0.000358191
3	659	1.21	-0.000681704
3	1205	1.31	-0.00093487
3	1751	1.41	-0.00112579
3	2297	1.51	-0.00126221
3	2843	1.61	-0.00135149
3	3389	1.71	-0.00140049
3	3935	1.81	-0.00141557
3	4481	1.91	-0.00140255
3	5035	2.01	-0.00136671
3	5581	2.11	-0.0013128
3	6127	2.21	-0.00124502
3	6673	2.31	-0.0011671
3	7219	2.41	-0.00108223
3	7765	2.51	-0.000993208
3	8311	2.61	-0.000902362
3	8857	2.71	-0.000811651
3	9403	2.81	-0.000722679
3	9949	2.91	-0.000636729
3	10503	3.01	-0.0005548
3	11049	3.11	-0.000477639
3	11595	3.21	-0.000405773
3	12141	3.31	-0.00033954
3	12687	3.41	-0.000279116
3	13233	3.51	-0.000224541
3	13779	3.61	-0.000175743
3	14325	3.71	-0.00013256
3	14871	3.81	-9.47571e-05
3	15417	3.91	-6.2046e-05
3	15971	4.01	-3.40986e-05
3	16517	4.11	-1.05605e-05
3	17063	4.21	8.93844e-06
3	17609	4.31	2.4774e-05
3	18155	4.41	3.73203e-05
3	18701	4.51	4.69433e-05
3	19247	4.61	5.39956e-05
3	19793	4.71	5.88124e-05
3	20339	4.81	6.1709e-05
3	20885	4.91	6.29785e-05
3	21440	5.01	6.28903e-05
3	21987	5.11	0.00688718
3	22534	5.21	0.0746459
3	23081	5.31	0.190099
3	23628	5.41	0.340538
3	24175	5.51	0.513051
3	24722	5.61	0.690283
3	25269	5.71	0.83575
3	25816	5.81	0.955083
3	26363	5.91	1.05298
3	26918	6.01	1.13329
3	27465	6.11	1.19917
3	28012	6.21	1.25321
3	28559	6.31	1.29755
3	29106	6.41	1.33392
3	29653	6.51	1.3636
3	30200	6.61	1.37021
3	30747	6.71	1.32727
3	31294	6.81	1.23738
3	31841	6.91	1.10404
3	32396	7.01	0.93147
3	32943	7.11	0.724512
3	33490	7.21	0.488542
3	34037	7.31	0.229305
3	34584	7.41	-0.0448439
3	35131	7.51	-0.306265
3	35678	7.61	-0.520722
3	36225	7.71	-0.696651
3	36772	7.81	-0.840974
3	37319	7.91	-0.959369
3	37874	8.01	-1.05649
3	38421	8.11	-1.13617
3	38968	8.21	-1.20153
3	39515	8.31	-1.25515
3	40062	8.41	-1.29914
3	40609	8.51	-1.33523
3	41156	8.61	-1.36483
3	41703	8.71	-1.38911
3	42250	8.81	-1.40903
3	42797	8.91	-1.42538
3	43352	9.01	-1.43878
3	43899	9.11	-1.44978
3	44446	9.21	-1.4588
3	44993	9.31	-1.4662
3	45540	9.41	-1.47227
3	46087	9.51	-1.46962
3	46634	9.61	-1.39679
3	47181	9.71	-1.25878
3	47728	9.81	-1.0661
3	48275	9.91	-0.829229
3	48830	10.01	-0.55853
3	49377	10.11	-0.264039
3	49924	10.21	0.0394309
3	50471	10.31	0.301825
3	51018	10.41	0.517079
3	51565	10.51	0.693662
3	52112	10.61	0.838522
3	52659	10.71	0.957358
3	53206	10.81	1.05484
3	53753	10.91	1.13482
3	54308	11.01	1.20042
3	54855	11.11	1.25424
3	55402	11.21	1.29839
3	55949	11.31	1.33461
3	56496	11.41	1.36432
3	57043	11.51	1.3887
3	57590	11.61	1.40869
3	58137	11.71	1.4251
3	58684	11.81	1.43855
3	59231	11.91	1.43456
3	59786	12.01	1.36235
3	60333	12.11	1.22999
3	60880	12.21	1.04615
3	61427	12.31	0.819673
3	61974	12.41	0.559519
3	62521	12.51	0.274538
3	63068	12.61	-0.0223415
3	63615	12.71	-0.287805
3	64162	12.81	-0.505578
3	64709	12.91	-0.684228
3	65264	13.01	-0.830783
3	65811	13.11	-0.951009
3	66358	13.21	-1.04964
3	66905	13.31	-1.13054
3	67452	13.41	-1.19692
3	67999	13.51	-1.25137
3	68546	13.61	-1.29603
3	69093	13.71	-1.33268
3	69640	13.81	-1.36274
3	70187	13.91	-1.3874
3	70742	14.01	-1.40763
3	71289	14.11	-1.42422
3	71836	14.21	-1.43783
3	72383	14.31	-1.449
3	72930	14.41	-1.45426
3	73477	14.51	-1.40674
3	74024	14.61	-1.29386
3	74571	14.71	-1.12484
3	75118	14.81	-0.909123
3	75665	14.91	-0.656177
3	76220	15.01	-0.37539
3	76767	15.11	-0.0780586
3	77314	15.21	0.205442
3	77861	15.31	0.438012
3	78408	15.41	0.6288
3	78955	15.51	0.785312
3	79502	15.61	0.913707
3	80049	15.71	1.01904
3	80596	15.81	1.10544
3	81143	15.91	1.17632
3	81698	16.01	1.23447
3	82245	16.11	1.28218
3	82792	16.21	1.32131
3	83339	16.31	1.35341
3	83886	16.41	1.37975
3	84433	16.51	1.40135
3	84980	16.61	1.41907
3	85527	16.71	1.43361
3	86074	16.81	1.44554
3	86621	16.91	1.4503
3	87176	17.01	1.39356
3	87723	17.11	1.27333
3	88270	17.21	1.09867
3	88817	17.31	0.878789
3	89364	17.41	0.622979
3	89911	17.51	0.340424
3	90458	17.61	0.0430294
3	91005	17.71	-0.234178
3	91552	17.81	-0.461585
3	92099	17.91	-0.648138
3	92654	18.01	-0.801177
3	93201	18.11	-0.926722
3	93748	18.21	-1.02971
3	94295	18.31	-1.1142
3	94842	18.41	-1.18351
3	95389	18.51	-1.24037
3	95936	18.61	-1.28701
3	96483	18.71	-1.32527
3	97030	18.81	-1.35666
3	97577	18.91	-1.38242
3	98132	19.01	-1.40354
3	98679	19.11	-1.42087
3	99226	19.21	-1.43508
3	99773	19.31	-1.44675
3	100320	19.41	-1.45172
3	100867	19.51	-1.39839
3	101414	19.61	-1.2809
3	101961	19.71	-1.10833
3	102508	19.81	-0.889996
3	103055	19.91	-0.635245
3	103610	20.01	-0.353353
3	104157	20.11	-0.0559802
3	104704	20.21	0.223554
3	105251	20.31	0.45287
3	105798	20.41	0.640989
3	106345	20.51	0.795311
3	106892	20.61	0.92191
3	107439	20.71	1.02576
3	107986	20.81	1.11096
3	108533	20.91	1.18085
3	109088	21.01	1.23819
3	109635	21.11	1.28522
3	110182	21.21	1.32381
3	110729	21.31	1.35546
3	111276	21.41	1.38143
3	111823	21.51	1.40273
3	112370	21.61	1.4202
3	112917	21.71	1.43454
3	113464	21.81	1.4463
3	114011	21.91	1.4512
3	114566	22.01	1.39661
3	115113	22.11	1.2781
3	115660	22.21	1.10476
3	116207	22.31	0.885844
3	116754	22.41	0.630704
3	117301	22.51	0.34856
3	117848	22.61	0.051183
3	118395	22.71	-0.22749
3	118942	22.81	-0.456098
3	119489	22.91	-0.643637
3	120044	23.01	-0.797484
3	120591	23.11	-0.923692
3	121138	23.21	-1.02723
3	121685	23.31	-1.11216
3	122232	23.41	-1.18184
3	122779	23.51	-1.239
3	123326	23.61	-1.28589
3	123873	23.71	-1.32435
3	124420	23.81	-1.35591
3	124967	23.91	-1.38179
3	125522	24.01	-1.40303
3	126069	24.11	-1.42045
3	126616	24.21	-1.43474
3	127163	24.31	-1.44647
3	127710	24.41	-1.45139
3	128257	24.51	-1.39727
3	128804	24.61	-1.27914
3	129351	24.71	-1.10608
3	129898	24.81	-0.887388
3	130445	24.91	-0.632388
3	131000	25.01	-0.350343
3	131547	25.11	-0.0529625
3	132094	25.21	0.22603
3	132641	25.31	0.454901
3	133188	25.41	0.642655
3	133735	25.51	0.796678
3	134282	25.61	0.923031
3	134829	25.71	1.02668
3	135376	25.81	1.11172
3	135923	25.91	1.18147
3	136478	26.01	1.2387
3	137025	26.11	1.28564
3	137572	26.21	1.32415
3	138119	26.31	1.35574
3	138666	26.41	1.38166
3	139213	26.51	1.40292
3	139760	26.61	1.42036
3	140307	26.71	1.43467
3	140854	26.81	1.4464
3	141401	26.91	1.45132
3	141956	27.01	1.39703
3	142503	27.11	1.27875
3	143050	27.21	1.10559
3	143597	27.31	0.886811
3	144144	27.41	0.631764
3	144691	27.51	0.349677
3	145238	27.61	0.0523027
3	145785	27.71	-0.226571
3	146332	27.81	-0.455345
3	146879	27.91	-0.643019
3	147434	28.01	-0.796977
3	147981	28.11	-0.923276
3	148528	28.21	-1.02689
3	149075	28.31	-1.11188
3	149622	28.41	-1.18161
3	150169	28.51	-1.23881
3	150716	28.61	-1.28573
3	151263	28.71	-1.32422
3	151810	28.81	-1.3558
3	152357	28.91	-1.38171
3	152912	29.01	-1.40296
3	153459	29.11	-1.42039
3	154006	29.21	-1.43469
3	154553	29.31	-1.44643
3	155100	29.41	-1.45135
3	155647	29.51	-1.39712
3	156194	29.61	-1.2789
3	156741	29.71	-1.10577
3	157288	29.81	-0.887029
3	157835	29.91	-0.631995
3	158390	30.01	-0.349929
3	158937	30.11	-0.052547
3	159484	30.21	0.226371
3	160031	30.31	0.45518
3	160578	30.41	0.642884
3	161125	30.51	0.796866
3	161672	30.61	0.923185
3	162219	30.71	1.02681
3	162766	30.81	1.11182
3	163313	30.91	1.18156
3	163868	31.01	1.23877
3	164415	31.11	1.2857
3	164962	31.21	1.3242
3	165509	31.31	1.35578
3	166056	31.41	1.38169
3	166603	31.51	1.40294
3	167150	31.61	1.42038
3	167697	31.71	1.43468
3	168244	31.81	1.44642
3	168791	31.91	1.45134
3	169346	32.01	1.39709
3	169893	32.11	1.27884
3	170440	32.21	1.10571
3	170987	32.31	0.886945
3	171534	32.41	0.63191
3	172081	32.51	0.349831
3	172628	32.61	0.0524569
3	173175	32.71	-0.226445
3	173722	32.81	-0.455241
3	174269	32.91	-0.642934
3	174824	33.01	-0.796907
3	175371	33.11	-0.923219
3	175918	33.21	-1.02684
3	176465	33.31	-1.11184
3	177012	33.41	-1.18158
3	177559	33.51	-1.23878
3	178106	33.61	-1.28571
3	178653	33.71	-1.32421
3	179200	33.81	-1.35579
3	179747	33.91	-1.3817
3	180302	34.01	-1.40295
3	180849	34.11	-1.42039
3	181396	34.21	-1.43469
3	181943	34.31	-1.44642
3	182490	34.41	-1.45134
3	183037	34.51	-1.39709
3	183584	34.61	-1.27887
3	184131	34.71	-1.10573
3	184678	34.81	-0.88698
3	185225	34.91	-0.631941
3	185780	35.01	-0.349872
3	186327	35.11	-0.0524898
3	186874	35.21	0.226418
3	187421	35.31	0.455219
3	187968	35.41	0.642916
3	188515	35.51	0.796892
3	189062	35.61	0.923207
3	189609	35.71	1.02683
3	190156	35.81	1.11183
3	190703	35.91	1.18157
3	191258	36.01	1.23878
3	191805	36.11	1.28571
3	192352	36.21	1.3242
3	192899	36.31	1.35579
3	193446	36.41	1.38169
3	193993	36.51	1.40295
3	194540	36.61	1.42038
3	195087	36.71	1.43469
3	195634	36.81	1.44642
3	196181	36.91	1.45134
3	196736	37.01	1.3971
3	197283	37.11	1.27886
3	197830	37.21	1.10572
3	198377	37.31	0.886963
3	198924	37.41	0.63193
3	199471	37.51	0.349852
3	200018	37.61	0.0524781
3	200565	37.71	-0.226427
3	201112	37.81	-0.455227
3	201659	37.91	-0.642922
3	202214	38.01	-0.796898
3	202761	38.11	-0.923211
3	203308	38.21	-1.02683
3	203855	38.31	-1.11184
3	204402	38.41	-1.18157
3	204949	38.51	-1.23878
3	205496	38.61	-1.28571
3	206043	38.71	-1.3242
3	206590	38.81	-1.35579
3	207137	38.91	-1.38169
3	207692	39.01	-1.40295
3	208239	39.11	-1.42038
3	208786	39.21	-1.43469
3	209333	39.31	-1.44642
3	209880	39.41	-1.45134
3	210427	39.51	-1.39709
3	210974	39.61	-1.27886
3	211521	39.71	-1.10572
3	212068	39.81	-0.886973
3	212615	39.91	-0.631933
3	213170	40.01	-0.349864
3	213717	40.11	-0.0524819
3	214264	40.21	0.226424
3	214811	40.31	0.455224
3	215358	40.41	0.64292
3	215905	40.51	0.796896
3	216452	40.61	0.92321
3	216999	40.71	1.02683
3	217546	40.81	1.11184
3	218093	40.91	1.18157
3	218648	41.01	1.23878
3	219195	41.11	1.28571
3	219742	41.21	1.3242
3	220289	41.31	1.35579
3	220836	41.41	1.38169
3	221383	41.51	1.40295
3	221930	41.61	1.42038
3	222477	41.71	1.43469
3	223024	41.81	1.44642
3	223571	41.91	1.45134
3	224126	42.01	1.3971
3	224673	42.11	1.27886
3	225220	42.21	1.10572
3	225767	42.31	0.886966
3	226314	42.41	0.631933
3	226861	42.51	0.349855
3	227408	42.61	0.0524811
3	227955	42.71	-0.226425
3	228502	42.81	-0.455225
3	229049	42.91	-0.64292
3	229604	43.01	-0.796896
3	230151	43.11	-0.92321
3	230698	43.21	-1.02683
3	231245	43.31	-1.11184
3	231792	43.41	-1.18157
3	232339	43.51	-1.23878
3	232886	43.61	-1.28571
3	233433	43.71	-1.3242
3	233980	43.81	-1.35579
3	234527	43.91	-1.38169
3	235082	44.01	-1.40295
3	235629	44.11	-1.42038
3	236176	44.21	-1.43469
3	236723	44.31	-1.44642
3	237270	44.41	-1.45134
3	237817	44.51	-1.39709
3	238364	44.61	-1.27886
3	238911	44.71	-1.10572
3	239458	44.81	-0.886972
3	240005	44.91	-0.631932
3	240560	45.01	-0.349863
3	241107	45.11	-0.0524808
3	241654	45.21	0.226425
3	242201	45.31	0.455225
3	242748	45.41	0.642921
3	243295	45.51	0.796896
3	243842	45.61	0.92321
3	244389	45.71	1.02683
3	244936	45.81	1.11184
3	245483	45.91	1.18157
3	246038	46.01	1.23878
3	246585	46.11	1.28571
3	247132	46.21	1.3242
3	247679	46.31	1.35579
3	248226	46.41	1.38169
3	248773	46.51	1.40295
3	249320	46.61	1.42038
3	249867	46.71	1.43469
3	250414	46.81	1.44642
3	250961	46.91	1.45134
3	251516	47.01	1.3971
3	252063	47.11	1.27886
3	252610	47.21	1.10572
3	253157	47.31	0.886966
3	253704	47.41	0.631933
3	254251	47.51	0.349855
3	254798	47.61	0.0524815
3	255345	47.71	-0.226424
3	255892	47.81	-0.455224
3	256439	47.91	-0.64292
3	256994	48.01	-0.796896
3	257541	48.11	-0.92321
3	258088	48.21	-1.02683
3	258635	48.31	-1.11184
3	259182	48.41	-1.18157
3	259729	48.51	-1.23878
3	260276	48.61	-1.28571
3	260823	48.71	-1.3242
3	261370	48.81	-1.35579
3	261917	48.91	-1.38169
3	262472	49.01	-1.40295
3	263019	49.11	-1.42038
3	263566	49.21	-1.43469
3	264113	49.31	-1.44642
3	264660	49.41	-1.45134
3	265207	49.51	-1.39709
3	265754	49.61	-1.27886
3	266301	49.71	-1.10572
3	266848	49.81	-0.886972
3	267395	49.91	-0.631932
3	267950	50.01	-0.349863
3	268497	50.11	-0.0524807
3	269044	50.21	0.226425
3	269591	50.31	0.455225
3	270138	50.41	0.642921
3	270685	50.51	0.796896
3	271232	50.61	0.92321
3	271779	50.71	1.02683
3	272326	50.81	1.11184
3	272873	50.91	1.18157
3	273428	51.01	1.23878
3	273975	51.11	1.28571
3	274522	51.21	1.3242
3	275069	51.31	1.35579
3	275616	51.41	1.38169
3	276163	51.51	1.40295
3	276710	51.61	1.42038
3	277257	51.71	1.43469
3	277804	51.81	1.44642
3	278351	51.91	1.45134
3	278906	52.01	1.3971
3	279453	52.11	1.27886
3	280000	52.21	1.10572
3	280547	52.31	0.886966
3	281094	52.41	0.631933
3	281641	52.51	0.349855
3	282188	52.61	0.0524815
3	282735	52.71	-0.226424
3	283282	52.81	-0.455224
3	283829	52.91	-0.64292
3	284384	53.01	-0.796896
3	284931	53.11	-0.92321
3	285478	53.21	-1.02683
3	286025	53.31	-1.11184
3	286572	53.41	-1.18157
3	287119	53.51	-1.23878
3	287666	53.61	-1.28571
3	288213	53.71	-1.3242
3	288760	53.81	-1.35579
3	289307	53.91	-1.38169
3	289862	54.01	-1.40295
3	290409	54.11	-1.42038
3	290956	54.21	-1.43469
3	291503	54.31	-1.44642
3	292050	54.41	-1.45134
3	292597	54.51	-1.39709
3	293144	54.61	-1.27886
3	293691	54.71	-1.10572
3	294238	54.81	-0.886972
3	294785	54.91	-0.631932
3	295340	55.01	-0.349863
3	295887	55.11	-0.0524807
3	296434	55.21	0.226425
3	296981	55.31	0.455225
3	297528	55.41	0.642921
3	298075	55.51	0.796896
3	298622	55.61	0.92321
3	299169	55.71	1.02683
3	299716	55.81	1.11184
3	300263	55.91	1.18157
3	300818	56.01	1.23878
3	301365	56.11	1.28571
3	301912	56.21	1.3242
3	302459	56.31	1.35579
3	303006	56.41	1.38169
3	303553	56.51	1.40295
3	304100	56.61	1.42038
3	304647	56.71	1.43469
3	305194	56.81	1.44642
3	305741	56.91	1.45134
3	306296	57.01	1.3971
3	306843	57.11	1.27886
3	307390	57.21	1.10572
3	307937	57.31	0.886966
3	308484	57.41	0.631933
3	309031	57.51	0.349855
3	309578	57.61	0.0524815
3	310125	57.71	-0.226424
3	310672	57.81	-0.455224
3	311219	57.91	-0.64292
3	311774	58.01	-0.796896
3	312321	58.11	-0.92321
3	312868	58.21	-1.02683
3	313415	58.31	-1.11184
3	313962	58.41	-1.18157
3	314509	58.51	-1.23878
3	315056	58.61	-1.28571
3	315603	58.71	-1.3242
3	316150	58.81	-1.35579
3	316697	58.91	-1.38169
3	317252	59.01	-1.40295
3	317799	59.11	-1.42038
3	318346	59.21	-1.43469
3	318893	59.31	-1.44642
3	319440	59.41	-1.45134
3	319987	59.51	-1.39709
3	320534	59.61	-1.27886
3	321081	59.71	-1.10572
3	321628	59.81	-0.886972
3	322175	59.91	-0.631932
7	113	1.11	242.45
7	659	1.21	242.45
7	1205	1.31	242.45
7	1751	1.41	242.45
7	2297	1.51	242.45
7	2843	1.61	242.45
7	3389	1.71	242.45
7	3935	1.81	242.45
7	4481	1.91	242.45
7	5035	2.01	242.45
7	5581	2.11	242.45
7	6127	2.21	242.45
7	6673	2.31	242.45
7	7219	2.41	242.45
7	7765	2.51	242.45
7	8311	2.61	242.45
7	8857	2.71	242.45
7	9403	2.81	242.45
7	9949	2.91	242.45
7	10503	3.01	242.45
7	11049	3.11	242.45
7	11595	3.21	242.45
7	12141	3.31	242.45
7	12687	3.41	242.45
7	13233	3.51	242.45
7	13779	3.61	242.45
7	14325	3.71	242.45
7	14871	3.81	242.45
7	15417	3.91	242.45
7	15971	4.01	242.45
7	16517	4.11	242.45
7	17063	4.21	242.45
7	17609	4.31	242.45
7	18155	4.41	242.45
7	18701	4.51	242.45
7	19247	4.61	242.45
7	19793	4.71	242.45
7	20339	4.81	242.45
7	20885	4.91	242.45
7	21440	5.01	242.45
7	21987	5.11	242.45
7	22534	5.21	242.45
7	23081	5.31	242.45
7	23628	5.41	242.45
7	24175	5.51	242.45
7	24722	5.61	242.45
7	25269	5.71	242.45
7	25816	5.81	242.45
7	26363	5.91	242.45
7	26918	6.01	242.45
7	27465	6.11	242.45
7	28012	6.21	242.45
7	28559	6.31	242.45
7	29106	6.41	242.45
7	29653	6.51	242.45
7	30200	6.61	242.45
7	30747	6.71	242.45
7	31294	6.81	242.45
7	31841	6.91	242.45
7	32396	7.01	242.45
7	32943	7.11	242.45
7	33490	7.21	242.45
7	34037	7.31	242.45
7	34584	7.41	242.45
7	35131	7.51	242.45
7	35678	7.61	242.45
7	36225	7.71	242.45
7	36772	7.81	242.45
7	37319	7.91	242.45
7	37874	8.01	242.45
7	38421	8.11	242.45
7	38968	8.21	242.45
7	39515	8.31	242.45
7	40062	8.41	242.45
7	40609	8.51	242.45
7	41156	8.61	242.45
7	41703	8.71	242.45
7	42250	8.81	242.45
7	42797	8.91	242.45
7	43352	9.01	242.45
7	43899	9.11	242.45
7	44446	9.21	242.45
7	44993	9.31	242.45
7	45540	9.41	242.45
7	46087	9.51	242.45
7	46634	9.61	242.45
7	47181	9.71	242.45
7	47728	9.81	242.45
7	48275	9.91	242.45
7	48830	10.01	242.45
7	49377	10.11	242.45
7	49924	10.21	242.45
7	50471	10.31	242.45
7	51018	10.41	242.45
7	51565	10.51	242.45
7	52112	10.61	242.45
7	52659	10.71	242.45
7	53206	10.81	242.45
7	53753	10.91	242.45
7	54308	11.01	242.45
7	54855	11.11	242.45
7	55402	11.21	242.45
7	55949	11.31	242.45
7	56496	11.41	242.45
7	57043	11.51	242.45
7	57590	11.61	242.45
7	58137	11.71	242.45
7	58684	11.81	242.45
7	59231	11.91	242.45
7	59786	12.01	242.45
7	60333	12.11	242.45
7	60880	12.21	242.45
7	61427	12.31	242.45
7	61974	12.41	242.45
7	62521	12.51	242.45
7	63068	12.61	242.45
7	63615	12.71	242.45
7	64162	12.81	242.45
7	64709	12.91	242.45
7	65264	13.01	242.45
7	65811	13.11	242.45
7	66358	13.21	242.45
7	66905	13.31	242.45
7	67452	13.41	242.45
7	67999	13.51	242.45
7	68546	13.61	242.45
7	69093	13.71	242.45
7	69640	13.81	242.45
7	70187	13.91	242.45
7	70742	14.01	242.45
7	71289	14.11	242.45
7	71836	14.21	242.45
7	72383	14.31	242.45
7	72930	14.41	242.45
7	73477	14.51	242.45
7	74024	14.61	242.45
7	74571	14.71	242.45
7	75118	14.81	242.45
7	75665	14.91	242.45
7	76220	15.01	242.45
7	76767	15.11	242.45
7	77314	15.21	242.45
7	77861	15.31	242.45
7	78408	15.41	242.45
7	78955	15.51	242.45
7	79502	15.61	242.45
7	80049	15.71	242.45
7	80596	15.81	242.45
7	81143	15.91	242.45
7	81698	16.01	242.45
7	82245	16.11	242.45
7	82792	16.21	242.45
7	83339	16.31	242.45
7	83886	16.41	242.45
7	84433	16.51	242.45
7	84980	16.61	242.45
7	85527	16.71	242.45
7	86074	16.81	242.45
7	86621	16.91	242.45
7	87176	17.01	242.45
7	87723	17.11	242.45
7	88270	17.21	242.45
7	88817	17.31	242.45
7	89364	17.41	242.45
7	89911	17.51	242.45
7	90458	17.61	242.45
7	91005	17.71	242.45
7	91552	17.81	242.45
7	92099	17.91	242.45
7	92654	18.01	242.45
7	93201	18.11	242.45
7	93748	18.21	242.45
7	94295	18.31	242.45
7	94842	18.41	242.45
7	95389	18.51	242.45
7	95936	18.61	242.45
7	96483	18.71	242.45
7	97030	18.81	242.45
7	97577	18.91	242.45
7	98132	19.01	242.45
7	98679	19.11	242.45
7	99226	19.21	242.45
7	99773	19.31	242.45
7	100320	19.41	242.45
7	100867	19.51	242.45
7	101414	19.61	242.45
7	101961	19.71	242.45
7	102508	19.81	242.45
7	103055	19.91	242.45
7	103610	20.01	242.45
7	104157	20.11	242.45
7	104704	20.21	242.45
7	105251	20.31	242.45
7	105798	20.41	242.45
7	106345	20.51	242.45
7	106892	20.61	242.45
7	107439	20.71	242.45
7	107986	20.81	242.45
7	108533	20.91	242.45
7	109088	21.01	242.45
7	109635	21.11	242.45
7	110182	21.21	242.45
7	110729	21.31	242.45
7	111276	21.41	242.45
7	111823	21.51	242.45
7	112370	21.61	242.45
7	112917	21.71	242.45
7	113464	21.81	242.45
7	114011	21.91	242.45
7	114566	22.01	242.45
7	115113	22.11	242.45
7	115660	22.21	242.45
7	116207	22.31	242.45
7	116754	22.41	242.45
7	117301	22.51	242.45
7	117848	22.61	242.45
7	118395	22.71	242.45
7	118942	22.81	242.45
7	119489	22.91	242.45
7	120044	23.01	242.45
7	120591	23.11	242.45
7	121138	23.21	242.45
7	121685	23.31	242.45
7	122232	23.41	242.45
7	122779	23.51	242.45
7	123326	23.61	242.45
7	123873	23.71	242.45
7	124420	23.81	242.45
7	124967	23.91	242.45
7	125522	24.01	242.45
7	126069	24.11	242.45
7	126616	24.21	242.45
7	127163	24.31	242.45
7	127710	24.41	242.45
7	128257	24.51	242.45
7	128804	24.61	242.45
7	129351	24.71	242.45
7	129898	24.81	242.45
7	130445	24.91	242.45
7	131000	25.01	242.45
7	131547	25.11	242.45
7	132094	25.21	242.45
7	132641	25.31	242.45
7	133188	25.41	242.45
7	133735	25.51	242.45
7	134282	25.61	242.45
7	134829	25.71	242.45
7	135376	25.81	242.45
7	135923	25.91	242.45
7	136478	26.01	242.45
7	137025	26.11	242.45
7	137572	26.21	242.45
7	138119	26.31	242.45
7	138666	26.41	242.45
7	139213	26.51	242.45
7	139760	26.61	242.45
7	140307	26.71	242.45
7	140854	26.81	242.45
7	141401	26.91	242.45
7	141956	27.01	242.45
7	142503	27.11	242.45
7	143050	27.21	242.45
7	143597	27.31	242.45
7	144144	27.41	242.45
7	144691	27.51	242.45
7	145238	27.61	242.45
7	145785	27.71	242.45
7	146332	27.81	242.45
7	146879	27.91	242.45
7	147434	28.01	242.45
7	147981	28.11	242.45
7	148528	28.21	242.45
7	149075	28.31	242.45
7	149622	28.41	242.45
7	150169	28.51	242.45
7	150716	28.61	242.45
7	151263	28.71	242.45
7	151810	28.81	242.45
7	152357	28.91	242.45
7	152912	29.01	242.45
7	153459	29.11	242.45
7	154006	29.21	242.45
7	154553	29.31	242.45
7	155100	29.41	242.45
7	155647	29.51	242.45
7	156194	29.61	242.45
7	156741	29.71	242.45
7	157288	29.81	242.45
7	157835	29.91	242.45
7	158390	30.01	242.45
7	158937	30.11	242.45
7	159484	30.21	242.45
7	160031	30.31	242.45
7	160578	30.41	242.45
7	161125	30.51	242.45
7	161672	30.61	242.45
7	162219	30.71	242.45
7	162766	30.81	242.45
7	163313	30.91	242.45
7	163868	31.01	242.45
7	164415	31.11	242.45
7	164962	31.21	242.45
7	165509	31.31	242.45
7	166056	31.41	242.45
7	166603	31.51	242.45
7	167150	31.61	242.45
7	167697	31.71	242.45
7	168244	31.81	242.45
7	168791	31.91	242.45
7	169346	32.01	242.45
7	169893	32.11	242.45
7	170440	32.21	242.45
7	170987	32.31	242.45
7	171534	32.41	242.45
7	172081	32.51	242.45
7	172628	32.61	242.45
7	173175	32.71	242.45
7	173722	32.81	242.45
7	174269	32.91	242.45
7	174824	33.01	242.45
7	175371	33.11	242.45
7	175918	33.21	242.45
7	176465	33.31	242.45
7	177012	33.41	242.45
7	177559	33.51	242.45
7	178106	33.61	242.45
7	178653	33.71	242.45
7	179200	33.81	242.45
7	179747	33.91	242.45
7	180302	34.01	242.45
7	180849	34.11	242.45
7	181396	34.21	242.45
7	181943	34.31	242.45
7	182490	34.41	242.45
7	183037	34.51	242.45
7	183584	34.61	242.45
7	184131	34.71	242.45
7	184678	34.81	242.45
7	185225	34.91	242.45
7	185780	35.01	242.45
7	186327	35.11	242.45
7	186874	35.21	242.45
7	187421	35.31	242.45
7	187968	35.41	242.45
7	188515	35.51	242.45
7	189062	35.61	242.45
7	189609	35.71	242.45
7	190156	35.81	242.45
7	190703	35.91	242.45
7	191258	36.01	242.45
7	191805	36.11	242.45
7	192352	36.21	242.45
7	192899	36.31	242.45
7	193446	36.41	242.45
7	193993	36.51	242.45
7	194540	36.61	242.45
7	195087	36.71	242.45
7	195634	36.81	242.45
7	196181	36.91	242.45
7	196736	37.01	242.45
7	197283	37.11	242.45
7	197830	37.21	242.45
7	198377	37.31	242.45
7	198924	37.41	242.45
7	199471	37.51	242.45
7	200018	37.61	242.45
7	200565	37.71	242.45
7	201112	37.81	242.45
7	201659	37.91	242.45
7	202214	38.01	242.45
7	202761	38.11	242.45
7	203308	38.21	242.45
7	203855	38.31	242.45
7	204402	38.41	242.45
7	204949	38.51	242.45
7	205496	38.61	242.45
7	206043	38.71	242.45
7	206590	38.81	242.45
7	207137	38.91	242.45
7	207692	39.01	242.45
7	208239	39.11	242.45
7	208786	39.21	242.45
7	209333	39.31	242.45
7	209880	39.41	242.45
7	210427	39.51	242.45
7	210974	39.61	242.45
7	211521	39.71	242.45
7	212068	39.81	242.45
7	212615	39.91	242.45
7	213170	40.01	242.45
7	213717	40.11	242.45
7	214264	40.21	242.45
7	214811	40.31	242.45
7	215358	40.41	242.45
7	215905	40.51	242.45
7	216452	40.61	242.45
7	216999	40.71	242.45
7	217546	40.81	242.45
7	218093	40.91	242.45
7	218648	41.01	242.45
7	219195	41.11	242.45
7	219742	41.21	242.45
7	220289	41.31	242.45
7	220836	41.41	242.45
7	221383	41.51	242.45
7	221930	41.61	242.45
7	222477	41.71	242.45
7	223024	41.81	242.45
7	223571	41.91	242.45
7	224126	42.01	242.45
7	224673	42.11	242.45
7	225220	42.21	242.45
7	225767	42.31	242.45
7	226314	42.41	242.45
7	226861	42.51	242.45
7	227408	42.61	242.45
7	227955	42.71	242.45
7	228502	42.81	242.45
7	229049	42.91	242.45
7	229604	43.01	242.45
7	230151	43.11	242.45
7	230698	43.21	242.45
7	231245	43.31	242.45
7	231792	43.41	242.45
7	232339	43.51	242.45
7	232886	43.61	242.45
7	233433	43.71	242.45
7	233980	43.81	242.45
7	234527	43.91	242.45
7	235082	44.01	242.45
7	235629	44.11	242.45
7	236176	44.21	242.45
7	236723	44.31	242.45
7	237270	44.41	242.45
7	237817	44.51	242.45
7	238364	44.61	242.45
7	238911	44.71	242.45
7	239458	44.81	242.45
7	240005	44.91	242.45
7	240560	45.01	242.45
7	241107	45.11	242.45
7	241654	45.21	242.45
7	242201	45.31	242.45
7	242748	45.41	242.45
7	243295	45.51	242.45
7	243842	45.61	242.45
7	244389	45.71	242.45
7	244936	45.81	242.45
7	245483	45.91	242.45
7	246038	46.01	242.45
7	246585	46.11	242.45
7	247132	46.21	242.45
7	247679	46.31	242.45
7	248226	46.41	242.45
7	248773	46.51	242.45
7	249320	46.61	242.45
7	249867	46.71	242.45
7	250414	46.81	242.45
7	250961	46.91	242.45
7	251516	47.01	242.45
7	252063	47.11	242.45
7	252610	47.21	242.45
7	253157	47.31	242.45
7	253704	47.41	242.45
7	254251	47.51	242.45
7	254798	47.61	242.45
7	255345	47.71	242.45
7	255892	47.81	242.45
7	256439	47.91	242.45
7	256994	48.01	242.45
7	257541	48.11	242.45
7	258088	48.21	242.45
7	258635	48.31	242.45
7	259182	48.41	242.45
7	259729	48.51	242.45
7	260276	48.61	242.45
7	260823	48.71	242.45
7	261370	48.81	242.45
7	261917	48.91	242.45
7	262472	49.01	242.45
7	263019	49.11	242.45
7	263566	49.21	242.45
7	264113	49.31	242.45
7	264660	49.41	242.45
7	265207	49.51	242.45
7	265754	49.61	242.45
7	266301	49.71	242.45
7	266848	49.81	242.45
7	267395	49.91	242.45
7	267950	50.01	242.45
7	268497	50.11	242.45
7	269044	50.21	242.45
7	269591	50.31	242.45
7	270138	50.41	242.45
7	270685	50.51	242.45
7	271232	50.61	242.45
7	271779	50.71	242.45
7	272326	50.81	242.45
7	272873	50.91	242.45
7	273428	51.01	242.45
7	273975	51.11	242.45
7	274522	51.21	242.45
7	275069	51.31	242.45
7	275616	51.41	242.45
7	276163	51.51	242.45
7	276710	51.61	242.45
7	277257	51.71	242.45
7	277804	51.81	242.45
7	278351	51.91	242.45
7	278906	52.01	242.45
7	279453	52.11	242.45
7	280000	52.21	242.45
7	280547	52.31	242.45
7	281094	52.41	242.45
7	281641	52.51	242.45
7	282188	52.61	242.45
7	282735	52.71	242.45
7	283282	52.81	242.45
7	283829	52.91	242.45
7	284384	53.01	242.45
7	284931	53.11	242.45
7	285478	53.21	242.45
7	286025	53.31	242.45
7	286572	53.41	242.45
7	287119	53.51	242.45
7	287666	53.61	242.45
7	288213	53.71	242.45
7	288760	53.81	242.45
7	289307	53.91	242.45
7	289862	54.01	242.45
7	290409	54.11	242.45
7	290956	54.21	242.45
7	291503	54.31	242.45
7	292050	54.41	242.45
7	292597	54.51	242.45
7	293144	54.61	242.45
7	293691	54.71	242.45
7	294238	54.81	242.45
7	294785	54.91	242.45
7	295340	55.01	242.45
7	295887	55.11	242.45
7	296434	55.21	242.45
7	296981	55.31	242.45
7	297528	55.41	242.45
7	298075	55.51	242.45
7	298622	55.61	242.45
7	299169	55.71	242.45
7	299716	55.81	242.45
7	300263	55.91	242.45
7	300818	56.01	242.45
7	301365	56.11	242.45
7	301912	56.21	242.45
7	302459	56.31	242.45
7	303006	56.41	242.45
7	303553	56.51	242.45
7	304100	56.61	242.45
7	304647	56.71	242.45
7	305194	56.81	242.45
7	305741	56.91	242.45
7	306296	57.01	242.45
7	306843	57.11	242.45
7	307390	57.21	242.45
7	307937	57.31	242.45
7	308484	57.41	242.45
7	309031	57.51	242.45
7	309578	57.61	242.45
7	310125	57.71	242.45
7	310672	57.81	242.45
7	311219	57.91	242.45
7	311774	58.01	242.45
7	312321	58.11	242.45
7	312868	58.21	242.45
7	313415	58.31	242.45
7	313962	58.41	242.45
7	314509	58.51	242.45
7	315056	58.61	242.45
7	315603	58.71	242.45
7	316150	58.81	242.45
7	316697	58.91	242.45
7	317252	59.01	242.45
7	317799	59.11	242.45
7	318346	59.21	242.45
7	318893	59.31	242.45
7	319440	59.41	242.45
7	319987	59.51	242.45
7	320534	59.61	242.45
7	321081	59.71	242.45
7	321628	59.81	242.45
7	322175	59.91	242.45
6	113	1.11	286.27
6	659	1.21	289.048
6	1205	1.31	291.826
6	1751	1.41	294.604
6	2297	1.51	297.382
6	2843	1.61	300.16
6	3389	1.71	302.938
6	3935	1.81	305.716
6	4481	1.91	308.494
6	5035	2.01	311.272
6	5581	2.11	314.05
6	6127	2.21	316.828
6	6673	2.31	319.605
6	7219	2.41	322.383
6	7765	2.51	325.161
6	8311	2.61	327.939
6	8857	2.71	330.717
6	9403	2.81	333.495
6	9949	2.91	336.272
6	10503	3.01	339.05
6	11049	3.11	341.828
6	11595	3.21	344.606
6	12141	3.31	347.384
6	12687	3.41	350.161
6	13233	3.51	352.939
6	13779	3.61	355.717
6	14325	3.71	358.495
6	14871	3.81	361.272
6	15417	3.91	364.05
6	15971	4.01	366.828
6	16517	4.11	369.606
6	17063	4.21	372.383
6	17609	4.31	375.161
6	18155	4.41	377.939
6	18701	4.51	380.717
6	19247	4.61	383.495
6	19793	4.71	386.272
6	20339	4.81	389.05
6	20885	4.91	391.828
6	21440	5.01	394.606
6	21987	5.11	397.383
6	22534	5.21	400.161
6	23081	5.31	402.94
6	23628	5.41	405.721
6	24175	5.51	408.505
6	24722	5.61	411.295
6	25269	5.71	414.091
6	25816	5.81	416.896
6	26363	5.91	419.711
6	26918	6.01	422.536
6	27465	6.11	425.373
6	28012	6.21	428.221
6	28559	6.31	431.082
6	29106	6.41	433.956
6	29653	6.51	436.843
6	30200	6.61	439.744
6	30747	6.71	442.659
6	31294	6.81	445.587
6	31841	6.91	448.527
6	32396	7.01	451.478
6	32943	7.11	454.438
6	33490	7.21	457.405
6	34037	7.31	460.377
6	34584	7.41	463.351
6	35131	7.51	466.325
6	35678	7.61	469.295
6	36225	7.71	472.26
6	36772	7.81	475.218
6	37319	7.91	478.168
6	37874	8.01	481.108
6	38421	8.11	484.037
6	38968	8.21	486.955
6	39515	8.31	489.861
6	40062	8.41	492.755
6	40609	8.51	495.635
6	41156	8.61	498.502
6	41703	8.71	501.355
6	42250	8.81	504.195
6	42797	8.91	507.02
6	43352	9.01	509.831
6	43899	9.11	512.628
6	44446	9.21	515.41
6	44993	9.31	518.178
6	45540	9.41	520.931
6	46087	9.51	523.669
6	46634	9.61	526.393
6	47181	9.71	529.103
6	47728	9.81	531.8
6	48275	9.91	534.487
6	48830	10.01	537.166
6	49377	10.11	539.839
6	49924	10.21	542.51
6	50471	10.31	545.182
6	51018	10.41	547.856
6	51565	10.51	550.536
6	52112	10.61	553.223
6	52659	10.71	555.918
6	53206	10.81	558.623
6	53753	10.91	561.338
6	54308	11.01	564.065
6	54855	11.11	566.803
6	55402	11.21	569.555
6	55949	11.31	572.319
6	56496	11.41	575.097
6	57043	11.51	577.888
6	57590	11.61	580.693
6	58137	11.71	583.513
6	58684	11.81	586.346
6	59231	11.91	589.194
6	59786	12.01	592.056
6	60333	12.11	594.932
6	60880	12.21	597.82
6	61427	12.31	600.718
6	61974	12.41	603.624
6	62521	12.51	606.536
6	63068	12.61	609.45
6	63615	12.71	612.364
6	64162	12.81	615.275
6	64709	12.91	618.18
6	65264	13.01	621.079
6	65811	13.11	623.97
6	66358	13.21	626.851
6	66905	13.31	629.721
6	67452	13.41	632.58
6	67999	13.51	635.427
6	68546	13.61	638.262
6	69093	13.71	641.083
6	69640	13.81	643.892
6	70187	13.91	646.686
6	70742	14.01	649.467
6	71289	14.11	652.234
6	71836	14.21	654.986
6	72383	14.31	657.724
6	72930	14.41	660.448
6	73477	14.51	663.157
6	74024	14.61	665.852
6	74571	14.71	668.534
6	75118	14.81	671.205
6	75665	14.91	673.868
6	76220	15.01	676.524
6	76767	15.11	679.176
6	77314	15.21	681.828
6	77861	15.31	684.482
6	78408	15.41	687.14
6	78955	15.51	689.804
6	79502	15.61	692.477
6	80049	15.71	695.159
6	80596	15.81	697.851
6	81143	15.91	700.554
6	81698	16.01	703.269
6	82245	16.11	705.996
6	82792	16.21	708.736
6	83339	16.31	711.489
6	83886	16.41	714.256
6	84433	16.51	717.036
6	84980	16.61	719.831
6	85527	16.71	722.64
6	86074	16.81	725.463
6	86621	16.91	728.301
6	87176	17.01	731.153
6	87723	17.11	734.018
6	88270	17.21	736.897
6	88817	17.31	739.786
6	89364	17.41	742.684
6	89911	17.51	745.588
6	90458	17.61	748.495
6	91005	17.71	751.403
6	91552	17.81	754.308
6	92099	17.91	757.208
6	92654	18.01	760.102
6	93201	18.11	762.987
6	93748	18.21	765.864
6	94295	18.31	768.73
6	94842	18.41	771.585
6	95389	18.51	774.428
6	95936	18.61	777.259
6	96483	18.71	780.076
6	97030	18.81	782.881
6	97577	18.91	785.672
6	98132	19.01	788.449
6	98679	19.11	791.212
6	99226	19.21	793.961
6	99773	19.31	796.695
6	100320	19.41	799.415
6	100867	19.51	802.121
6	101414	19.61	804.813
6	101961	19.71	807.492
6	102508	19.81	810.16
6	103055	19.91	812.819
6	103610	20.01	815.472
6	104157	20.11	818.122
6	104704	20.21	820.772
6	105251	20.31	823.423
6	105798	20.41	826.08
6	106345	20.51	828.743
6	106892	20.61	831.413
6	107439	20.71	834.094
6	107986	20.81	836.784
6	108533	20.91	839.485
6	109088	21.01	842.199
6	109635	21.11	844.925
6	110182	21.21	847.663
6	110729	21.31	850.415
6	111276	21.41	853.18
6	111823	21.51	855.96
6	112370	21.61	858.753
6	112917	21.71	861.56
6	113464	21.81	864.382
6	114011	21.91	867.219
6	114566	22.01	870.069
6	115113	22.11	872.934
6	115660	22.21	875.811
6	116207	22.31	878.699
6	116754	22.41	881.596
6	117301	22.51	884.499
6	117848	22.61	887.405
6	118395	22.71	890.312
6	118942	22.81	893.216
6	119489	22.91	896.116
6	120044	23.01	899.009
6	120591	23.11	901.894
6	121138	23.21	904.77
6	121685	23.31	907.635
6	122232	23.41	910.49
6	122779	23.51	913.332
6	123326	23.61	916.162
6	123873	23.71	918.979
6	124420	23.81	921.783
6	124967	23.91	924.574
6	125522	24.01	927.35
6	126069	24.11	930.113
6	126616	24.21	932.861
6	127163	24.31	935.595
6	127710	24.41	938.315
6	128257	24.51	941.02
6	128804	24.61	943.711
6	129351	24.71	946.39
6	129898	24.81	949.058
6	130445	24.91	951.717
6	131000	25.01	954.369
6	131547	25.11	957.019
6	132094	25.21	959.668
6	132641	25.31	962.32
6	133188	25.41	964.976
6	133735	25.51	967.638
6	134282	25.61	970.309
6	134829	25.71	972.989
6	135376	25.81	975.679
6	135923	25.91	978.38
6	136478	26.01	981.093
6	137025	26.11	983.819
6	137572	26.21	986.557
6	138119	26.31	989.309
6	138666	26.41	992.074
6	139213	26.51	994.853
6	139760	26.61	997.646
6	140307	26.71	1000.45
6	140854	26.81	1003.28
6	141401	26.91	1006.11
6	141956	27.01	1008.96
6	142503	27.11	1011.83
6	143050	27.21	1014.7
6	143597	27.31	1017.59
6	144144	27.41	1020.49
6	144691	27.51	1023.39
6	145238	27.61	1026.3
6	145785	27.71	1029.2
6	146332	27.81	1032.11
6	146879	27.91	1035.01
6	147434	28.01	1037.9
6	147981	28.11	1040.79
6	148528	28.21	1043.66
6	149075	28.31	1046.53
6	149622	28.41	1049.38
6	150169	28.51	1052.22
6	150716	28.61	1055.05
6	151263	28.71	1057.87
6	151810	28.81	1060.67
6	152357	28.91	1063.46
6	152912	29.01	1066.24
6	153459	29.11	1069
6	154006	29.21	1071.75
6	154553	29.31	1074.49
6	155100	29.41	1077.21
6	155647	29.51	1079.91
6	156194	29.61	1082.6
6	156741	29.71	1085.28
6	157288	29.81	1087.95
6	157835	29.91	1090.61
6	158390	30.01	1093.26
6	158937	30.11	1095.91
6	159484	30.21	1098.56
6	160031	30.31	1101.21
6	160578	30.41	1103.87
6	161125	30.51	1106.53
6	161672	30.61	1109.2
6	162219	30.71	1111.88
6	162766	30.81	1114.57
6	163313	30.91	1117.27
6	163868	31.01	1119.98
6	164415	31.11	1122.71
6	164962	31.21	1125.45
6	165509	31.31	1128.2
6	166056	31.41	1130.96
6	166603	31.51	1133.74
6	167150	31.61	1136.54
6	167697	31.71	1139.34
6	168244	31.81	1142.16
6	168791	31.91	1145
6	169346	32.01	1147.85
6	169893	32.11	1150.72
6	170440	32.21	1153.59
6	170987	32.31	1156.48
6	171534	32.41	1159.38
6	172081	32.51	1162.28
6	172628	32.61	1165.19
6	173175	32.71	1168.09
6	173722	32.81	1171
6	174269	32.91	1173.9
6	174824	33.01	1176.79
6	175371	33.11	1179.67
6	175918	33.21	1182.55
6	176465	33.31	1185.42
6	177012	33.41	1188.27
6	177559	33.51	1191.11
6	178106	33.61	1193.94
6	178653	33.71	1196.76
6	179200	33.81	1199.56
6	179747	33.91	1202.35
6	180302	34.01	1205.13
6	180849	34.11	1207.89
6	181396	34.21	1210.64
6	181943	34.31	1213.37
6	182490	34.41	1216.09
6	183037	34.51	1218.8
6	183584	34.61	1221.49
6	184131	34.71	1224.17
6	184678	34.81	1226.84
6	185225	34.91	1229.5
6	185780	35.01	1232.15
6	186327	35.11	1234.8
6	186874	35.21	1237.45
6	187421	35.31	1240.1
6	187968	35.41	1242.75
6	188515	35.51	1245.42
6	189062	35.61	1248.09
6	189609	35.71	1250.77
6	190156	35.81	1253.46
6	190703	35.91	1256.16
6	191258	36.01	1258.87
6	191805	36.11	1261.6
6	192352	36.21	1264.34
6	192899	36.31	1267.09
6	193446	36.41	1269.85
6	193993	36.51	1272.63
6	194540	36.61	1275.42
6	195087	36.71	1278.23
6	195634	36.81	1281.05
6	196181	36.91	1283.89
6	196736	37.01	1286.74
6	197283	37.11	1289.6
6	197830	37.21	1292.48
6	198377	37.31	1295.37
6	198924	37.41	1298.27
6	199471	37.51	1301.17
6	200018	37.61	1304.08
6	200565	37.71	1306.98
6	201112	37.81	1309.89
6	201659	37.91	1312.79
6	202214	38.01	1315.68
6	202761	38.11	1318.56
6	203308	38.21	1321.44
6	203855	38.31	1324.3
6	204402	38.41	1327.16
6	204949	38.51	1330
6	205496	38.61	1332.83
6	206043	38.71	1335.65
6	206590	38.81	1338.45
6	207137	38.91	1341.24
6	207692	39.01	1344.02
6	208239	39.11	1346.78
6	208786	39.21	1349.53
6	209333	39.31	1352.26
6	209880	39.41	1354.98
6	210427	39.51	1357.69
6	210974	39.61	1360.38
6	211521	39.71	1363.06
6	212068	39.81	1365.73
6	212615	39.91	1368.38
6	213170	40.01	1371.04
6	213717	40.11	1373.69
6	214264	40.21	1376.34
6	214811	40.31	1378.99
6	215358	40.41	1381.64
6	215905	40.51	1384.31
6	216452	40.61	1386.98
6	216999	40.71	1389.66
6	217546	40.81	1392.35
6	218093	40.91	1395.05
6	218648	41.01	1397.76
6	219195	41.11	1400.49
6	219742	41.21	1403.22
6	220289	41.31	1405.98
6	220836	41.41	1408.74
6	221383	41.51	1411.52
6	221930	41.61	1414.31
6	222477	41.71	1417.12
6	223024	41.81	1419.94
6	223571	41.91	1422.78
6	224126	42.01	1425.63
6	224673	42.11	1428.49
6	225220	42.21	1431.37
6	225767	42.31	1434.26
6	226314	42.41	1437.16
6	226861	42.51	1440.06
6	227408	42.61	1442.96
6	227955	42.71	1445.87
6	228502	42.81	1448.77
6	229049	42.91	1451.67
6	229604	43.01	1454.57
6	230151	43.11	1457.45
6	230698	43.21	1460.33
6	231245	43.31	1463.19
6	231792	43.41	1466.05
6	232339	43.51	1468.89
6	232886	43.61	1471.72
6	233433	43.71	1474.54
6	233980	43.81	1477.34
6	234527	43.91	1480.13
6	235082	44.01	1482.91
6	235629	44.11	1485.67
6	236176	44.21	1488.42
6	236723	44.31	1491.15
6	237270	44.41	1493.87
6	237817	44.51	1496.58
6	238364	44.61	1499.27
6	238911	44.71	1501.95
6	239458	44.81	1504.61
6	240005	44.91	1507.27
6	240560	45.01	1509.93
6	241107	45.11	1512.58
6	241654	45.21	1515.22
6	242201	45.31	1517.88
6	242748	45.41	1520.53
6	243295	45.51	1523.19
6	243842	45.61	1525.87
6	244389	45.71	1528.55
6	244936	45.81	1531.24
6	245483	45.91	1533.94
6	246038	46.01	1536.65
6	246585	46.11	1539.38
6	247132	46.21	1542.11
6	247679	46.31	1544.87
6	248226	46.41	1547.63
6	248773	46.51	1550.41
6	249320	46.61	1553.2
6	249867	46.71	1556.01
6	250414	46.81	1558.83
6	250961	46.91	1561.67
6	251516	47.01	1564.52
6	252063	47.11	1567.38
6	252610	47.21	1570.26
6	253157	47.31	1573.15
6	253704	47.41	1576.04
6	254251	47.51	1578.95
6	254798	47.61	1581.85
6	255345	47.71	1584.76
6	255892	47.81	1587.66
6	256439	47.91	1590.56
6	256994	48.01	1593.46
6	257541	48.11	1596.34
6	258088	48.21	1599.22
6	258635	48.31	1602.08
6	259182	48.41	1604.94
6	259729	48.51	1607.78
6	260276	48.61	1610.61
6	260823	48.71	1613.43
6	261370	48.81	1616.23
6	261917	48.91	1619.02
6	262472	49.01	1621.8
6	263019	49.11	1624.56
6	263566	49.21	1627.31
6	264113	49.31	1630.04
6	264660	49.41	1632.76
6	265207	49.51	1635.47
6	265754	49.61	1638.16
6	266301	49.71	1640.84
6	266848	49.81	1643.5
6	267395	49.91	1646.16
6	267950	50.01	1648.82
6	268497	50.11	1651.46
6	269044	50.21	1654.11
6	269591	50.31	1656.77
6	270138	50.41	1659.42
6	270685	50.51	1662.08
6	271232	50.61	1664.75
6	271779	50.71	1667.43
6	272326	50.81	1670.12
6	272873	50.91	1672.83
6	273428	51.01	1675.54
6	273975	51.11	1678.26
6	274522	51.21	1681
6	275069	51.31	1683.75
6	275616	51.41	1686.52
6	276163	51.51	1689.3
6	276710	51.61	1692.09
6	277257	51.71	1694.9
6	277804	51.81	1697.72
6	278351	51.91	1700.56
6	278906	52.01	1703.41
6	279453	52.11	1706.27
6	280000	52.21	1709.15
6	280547	52.31	1712.04
6	281094	52.41	1714.93
6	281641	52.51	1717.84
6	282188	52.61	1720.74
6	282735	52.71	1723.65
6	283282	52.81	1726.55
6	283829	52.91	1729.45
6	284384	53.01	1732.35
6	284931	53.11	1735.23
6	285478	53.21	1738.11
6	286025	53.31	1740.97
6	286572	53.41	1743.83
6	287119	53.51	1746.67
6	287666	53.61	1749.5
6	288213	53.71	1752.32
6	288760	53.81	1755.12
6	289307	53.91	1757.91
6	289862	54.01	1760.69
6	290409	54.11	1763.45
6	290956	54.21	1766.2
6	291503	54.31	1768.93
6	292050	54.41	1771.65
6	292597	54.51	1774.36
6	293144	54.61	1777.05
6	293691	54.71	1779.72
6	294238	54.81	1782.39
6	294785	54.91	1785.05
6	295340	55.01	1787.7
6	295887	55.11	1790.35
6	296434	55.21	1793
6	296981	55.31	1795.65
6	297528	55.41	1798.31
6	298075	55.51	1800.97
6	298622	55.61	1803.64
6	299169	55.71	1806.32
6	299716	55.81	1809.01
6	300263	55.91	1811.71
6	300818	56.01	1814.43
6	301365	56.11	1817.15
6	301912	56.21	1819.89
6	302459	56.31	1822.64
6	303006	56.41	1825.41
6	303553	56.51	1828.19
6	304100	56.61	1830.98
6	304647	56.71	1833.79
6	305194	56.81	1836.61
6	305741	56.91	1839.45
6	306296	57.01	1842.3
6	306843	57.11	1845.16
6	307390	57.21	1848.04
6	307937	57.31	1850.93
6	308484	57.41	1853.82
6	309031	57.51	1856.72
6	309578	57.61	1859.63
6	310125	57.71	1862.54
6	310672	57.81	1865.44
6	311219	57.91	1868.34
6	311774	58.01	1871.23
6	312321	58.11	1874.12
6	312868	58.21	1876.99
6	313415	58.31	1879.86
6	313962	58.41	1882.71
6	314509	58.51	1885.56
6	315056	58.61	1888.39
6	315603	58.71	1891.2
6	316150	58.81	1894.01
6	316697	58.91	1896.8
6	317252	59.01	1899.57
6	317799	59.11	1902.34
6	318346	59.21	1905.09
6	318893	59.31	1907.82
6	319440	59.41	1910.54
6	319987	59.51	1913.24
6	320534	59.61	1915.94
6	321081	59.71	1918.61
6	321628	59.81	1921.28
6	322175	59.91	1923.94
5	113	1.11	27.78
5	659	1.21	27.7799
5	1205	1.31	27.7798
5	1751	1.41	27.7797
5	2297	1.51	27.7796
5	2843	1.61	27.7795
5	3389	1.71	27.7794
5	3935	1.81	27.7792
5	4481	1.91	27.7791
5	5035	2.01	27.7789
5	5581	2.11	27.7788
5	6127	2.21	27.7787
5	6673	2.31	27.7785
5	7219	2.41	27.7784
5	7765	2.51	27.7783
5	8311	2.61	27.7782
5	8857	2.71	27.7782
5	9403	2.81	27.7781
5	9949	2.91	27.778
5	10503	3.01	27.7779
5	11049	3.11	27.7779
5	11595	3.21	27.7779
5	12141	3.31	27.7778
5	12687	3.41	27.7778
5	13233	3.51	27.7778
5	13779	3.61	27.7777
5	14325	3.71	27.7777
5	14871	3.81	27.7777
5	15417	3.91	27.7777
5	15971	4.01	27.7777
5	16517	4.11	27.7777
5	17063	4.21	27.7777
5	17609	4.31	27.7777
5	18155	4.41	27.7777
5	18701	4.51	27.7777
5	19247	4.61	27.7777
5	19793	4.71	27.7777
5	20339	4.81	27.7777
5	20885	4.91	27.7777
5	21440	5.01	27.7777
5	21987	5.11	27.7778
5	22534	5.21	27.782
5	23081	5.31	27.7958
5	23628	5.41	27.823
5	24175	5.51	27.8667
5	24722	5.61	27.9281
5	25269	5.71	28.0053
5	25816	5.81	28.0957
5	26363	5.91	28.1967
5	26918	6.01	28.3066
5	27465	6.11	28.4236
5	28012	6.21	28.5466
5	28559	6.31	28.6744
5	29106	6.41	28.8062
5	29653	6.51	28.9413
5	30200	6.61	29.0784
5	30747	6.71	29.2134
5	31294	6.81	29.3414
5	31841	6.91	29.458
5	32396	7.01	29.559
5	32943	7.11	29.6409
5	33490	7.21	29.7003
5	34037	7.31	29.7349
5	34584	7.41	29.7425
5	35131	7.51	29.7232
5	35678	7.61	29.6804
5	36225	7.71	29.6184
5	36772	7.81	29.5406
5	37319	7.91	29.4498
5	37874	8.01	29.3483
5	38421	8.11	29.2382
5	38968	8.21	29.1208
5	39515	8.31	28.9976
5	40062	8.41	28.8696
5	40609	8.51	28.7377
5	41156	8.61	28.6025
5	41703	8.71	28.4646
5	42250	8.81	28.3246
5	42797	8.91	28.1828
5	43352	9.01	28.0395
5	43899	9.11	27.895
5	44446	9.21	27.7495
5	44993	9.31	27.6032
5	45540	9.41	27.4562
5	46087	9.51	27.3088
5	46634	9.61	27.1655
5	47181	9.71	27.0331
5	47728	9.81	26.9176
5	48275	9.91	26.824
5	48830	10.01	26.7559
5	49377	10.11	26.7164
5	49924	10.21	26.7071
5	50471	10.31	26.7259
5	51018	10.41	26.7682
5	51565	10.51	26.83
5	52112	10.61	26.9075
5	52659	10.71	26.9981
5	53206	10.81	27.0994
5	53753	10.91	27.2094
5	54308	11.01	27.3266
5	54855	11.11	27.4497
5	55402	11.21	27.5776
5	55949	11.31	27.7095
5	56496	11.41	27.8446
5	57043	11.51	27.9824
5	57590	11.61	28.1224
5	58137	11.71	28.2642
5	58684	11.81	28.4075
5	59231	11.91	28.5516
5	59786	12.01	28.6914
5	60333	12.11	28.8206
5	60880	12.21	28.9337
5	61427	12.31	29.026
5	61974	12.41	29.0936
5	62521	12.51	29.1338
5	63068	12.61	29.1446
5	63615	12.71	29.1273
5	64162	12.81	29.0862
5	64709	12.91	29.0255
5	65264	13.01	28.9488
5	65811	13.11	28.8589
5	66358	13.21	28.7582
5	66905	13.31	28.6487
5	67452	13.41	28.5319
5	67999	13.51	28.4091
5	68546	13.61	28.2814
5	69093	13.71	28.1498
5	69640	13.81	28.0148
5	70187	13.91	27.8771
5	70742	14.01	27.7372
5	71289	14.11	27.5955
5	71836	14.21	27.4523
5	72383	14.31	27.3079
5	72930	14.41	27.1625
5	73477	14.51	27.0193
5	74024	14.61	26.8846
5	74571	14.71	26.7643
5	75118	14.81	26.6635
5	75665	14.91	26.5865
5	76220	15.01	26.5364
5	76767	15.11	26.5154
5	77314	15.21	26.5237
5	77861	15.31	26.5574
5	78408	15.41	26.612
5	78955	15.51	26.6837
5	79502	15.61	26.7695
5	80049	15.71	26.8669
5	80596	15.81	26.9737
5	81143	15.91	27.0882
5	81698	16.01	27.2092
5	82245	16.11	27.3353
5	82792	16.21	27.4657
5	83339	16.31	27.5997
5	83886	16.41	27.7365
5	84433	16.51	27.8757
5	84980	16.61	28.0169
5	85527	16.71	28.1596
5	86074	16.81	28.3036
5	86621	16.91	28.4487
5	87176	17.01	28.591
5	87723	17.11	28.724
5	88270	17.21	28.8419
5	88817	17.31	28.9398
5	89364	17.41	29.0136
5	89911	17.51	29.0603
5	90458	17.61	29.0777
5	91005	17.71	29.0664
5	91552	17.81	29.0301
5	92099	17.91	28.9733
5	92654	18.01	28.8998
5	93201	18.11	28.8126
5	93748	18.21	28.7141
5	94295	18.31	28.6064
5	94842	18.41	28.491
5	95389	18.51	28.3694
5	95936	18.61	28.2428
5	96483	18.71	28.1119
5	97030	18.81	27.9776
5	97577	18.91	27.8405
5	98132	19.01	27.701
5	98679	19.11	27.5597
5	99226	19.21	27.4168
5	99773	19.31	27.2726
5	100320	19.41	27.1275
5	100867	19.51	26.9848
5	101414	19.61	26.8512
5	101961	19.71	26.7324
5	102508	19.81	26.6334
5	103055	19.91	26.5584
5	103610	20.01	26.5105
5	104157	20.11	26.4917
5	104704	20.21	26.502
5	105251	20.31	26.5373
5	105798	20.41	26.5932
5	106345	20.51	26.6661
5	106892	20.61	26.7528
5	107439	20.71	26.8509
5	107986	20.81	26.9583
5	108533	20.91	27.0733
5	109088	21.01	27.1946
5	109635	21.11	27.3211
5	110182	21.21	27.4518
5	110729	21.31	27.586
5	111276	21.41	27.723
5	111823	21.51	27.8624
5	112370	21.61	28.0036
5	112917	21.71	28.1465
5	113464	21.81	28.2906
5	114011	21.91	28.4357
5	114566	22.01	28.5782
5	115113	22.11	28.7117
5	115660	22.21	28.8301
5	116207	22.31	28.9287
5	116754	22.41	29.0033
5	117301	22.51	29.0507
5	117848	22.61	29.069
5	118395	22.71	29.0583
5	118942	22.81	29.0226
5	119489	22.91	28.9664
5	120044	23.01	28.8933
5	120591	23.11	28.8064
5	121138	23.21	28.7082
5	121685	23.31	28.6007
5	122232	23.41	28.4855
5	122779	23.51	28.3641
5	123326	23.61	28.2375
5	123873	23.71	28.1068
5	124420	23.81	27.9725
5	124967	23.91	27.8355
5	125522	24.01	27.6961
5	126069	24.11	27.5548
5	126616	24.21	27.4119
5	127163	24.31	27.2678
5	127710	24.41	27.1227
5	128257	24.51	26.9801
5	128804	24.61	26.8466
5	129351	24.71	26.728
5	129898	24.81	26.6293
5	130445	24.91	26.5546
5	131000	25.01	26.5069
5	131547	25.11	26.4885
5	132094	25.21	26.499
5	132641	25.31	26.5346
5	133188	25.41	26.5907
5	133735	25.51	26.6637
5	134282	25.61	26.7505
5	134829	25.71	26.8487
5	135376	25.81	26.9561
5	135923	25.91	27.0713
5	136478	26.01	27.1927
5	137025	26.11	27.3192
5	137572	26.21	27.4499
5	138119	26.31	27.5841
5	138666	26.41	27.7212
5	139213	26.51	27.8605
5	139760	26.61	28.0018
5	140307	26.71	28.1447
5	140854	26.81	28.2888
5	141401	26.91	28.4339
5	141956	27.01	28.5765
5	142503	27.11	28.71
5	143050	27.21	28.8285
5	143597	27.31	28.9272
5	144144	27.41	29.0018
5	144691	27.51	29.0494
5	145238	27.61	29.0678
5	145785	27.71	29.0572
5	146332	27.81	29.0216
5	146879	27.91	28.9654
5	147434	28.01	28.8924
5	147981	28.11	28.8056
5	148528	28.21	28.7074
5	149075	28.31	28.5999
5	149622	28.41	28.4847
5	150169	28.51	28.3633
5	150716	28.61	28.2368
5	151263	28.71	28.106
5	151810	28.81	27.9718
5	152357	28.91	27.8348
5	152912	29.01	27.6954
5	153459	29.11	27.5541
5	154006	29.21	27.4113
5	154553	29.31	27.2671
5	155100	29.41	27.122
5	155647	29.51	26.9795
5	156194	29.61	26.846
5	156741	29.71	26.7274
5	157288	29.81	26.6287
5	157835	29.91	26.554
5	158390	30.01	26.5064
5	158937	30.11	26.488
5	159484	30.21	26.4986
5	160031	30.31	26.5342
5	160578	30.41	26.5903
5	161125	30.51	26.6633
5	161672	30.61	26.7502
5	162219	30.71	26.8484
5	162766	30.81	26.9559
5	163313	30.91	27.071
5	163868	31.01	27.1924
5	164415	31.11	27.3189
5	164962	31.21	27.4497
5	165509	31.31	27.5839
5	166056	31.41	27.7209
5	166603	31.51	27.8603
5	167150	31.61	28.0016
5	167697	31.71	28.1444
5	168244	31.81	28.2886
5	168791	31.91	28.4337
5	169346	32.01	28.5762
5	169893	32.11	28.7097
5	170440	32.21	28.8283
5	170987	32.31	28.9269
5	171534	32.41	29.0016
5	172081	32.51	29.0492
5	172628	32.61	29.0676
5	173175	32.71	29.0571
5	173722	32.81	29.0215
5	174269	32.91	28.9653
5	174824	33.01	28.8923
5	175371	33.11	28.8055
5	175918	33.21	28.7073
5	176465	33.31	28.5998
5	177012	33.41	28.4846
5	177559	33.51	28.3632
5	178106	33.61	28.2367
5	178653	33.71	28.1059
5	179200	33.81	27.9717
5	179747	33.91	27.8347
5	180302	34.01	27.6953
5	180849	34.11	27.554
5	181396	34.21	27.4112
5	181943	34.31	27.2671
5	182490	34.41	27.1219
5	183037	34.51	26.9794
5	183584	34.61	26.8459
5	184131	34.71	26.7273
5	184678	34.81	26.6287
5	185225	34.91	26.554
5	185780	35.01	26.5063
5	186327	35.11	26.488
5	186874	35.21	26.4985
5	187421	35.31	26.5341
5	187968	35.41	26.5903
5	188515	35.51	26.6633
5	189062	35.61	26.7501
5	189609	35.71	26.8483
5	190156	35.81	26.9558
5	190703	35.91	27.0709
5	191258	36.01	27.1923
5	191805	36.11	27.3189
5	192352	36.21	27.4496
5	192899	36.31	27.5838
5	193446	36.41	27.7209
5	193993	36.51	27.8603
5	194540	36.61	28.0015
5	195087	36.71	28.1444
5	195634	36.81	28.2885
5	196181	36.91	28.4337
5	196736	37.01	28.5762
5	197283	37.11	28.7097
5	197830	37.21	28.8283
5	198377	37.31	28.9269
5	198924	37.41	29.0016
5	199471	37.51	29.0492
5	200018	37.61	29.0676
5	200565	37.71	29.057
5	201112	37.81	29.0214
5	201659	37.91	28.9653
5	202214	38.01	28.8923
5	202761	38.11	28.8054
5	203308	38.21	28.7072
5	203855	38.31	28.5998
5	204402	38.41	28.4846
5	204949	38.51	28.3632
5	205496	38.61	28.2367
5	206043	38.71	28.1059
5	206590	38.81	27.9717
5	207137	38.91	27.8347
5	207692	39.01	27.6953
5	208239	39.11	27.554
5	208786	39.21	27.4112
5	209333	39.31	27.267
5	209880	39.41	27.1219
5	210427	39.51	26.9794
5	210974	39.61	26.8459
5	211521	39.71	26.7273
5	212068	39.81	26.6286
5	212615	39.91	26.554
5	213170	40.01	26.5063
5	213717	40.11	26.488
5	214264	40.21	26.4985
5	214811	40.31	26.5341
5	215358	40.41	26.5903
5	215905	40.51	26.6633
5	216452	40.61	26.7501
5	216999	40.71	26.8483
5	217546	40.81	26.9558
5	218093	40.91	27.0709
5	218648	41.01	27.1923
5	219195	41.11	27.3189
5	219742	41.21	27.4496
5	220289	41.31	27.5838
5	220836	41.41	27.7209
5	221383	41.51	27.8603
5	221930	41.61	28.0015
5	222477	41.71	28.1444
5	223024	41.81	28.2885
5	223571	41.91	28.4337
5	224126	42.01	28.5762
5	224673	42.11	28.7097
5	225220	42.21	28.8283
5	225767	42.31	28.9269
5	226314	42.41	29.0016
5	226861	42.51	29.0492
5	227408	42.61	29.0676
5	227955	42.71	29.057
5	228502	42.81	29.0214
5	229049	42.91	28.9653
5	229604	43.01	28.8923
5	230151	43.11	28.8054
5	230698	43.21	28.7072
5	231245	43.31	28.5997
5	231792	43.41	28.4846
5	232339	43.51	28.3632
5	232886	43.61	28.2367
5	233433	43.71	28.1059
5	233980	43.81	27.9717
5	234527	43.91	27.8347
5	235082	44.01	27.6953
5	235629	44.11	27.554
5	236176	44.21	27.4112
5	236723	44.31	27.267
5	237270	44.41	27.1219
5	237817	44.51	26.9794
5	238364	44.61	26.8459
5	238911	44.71	26.7273
5	239458	44.81	26.6286
5	240005	44.91	26.554
5	240560	45.01	26.5063
5	241107	45.11	26.488
5	241654	45.21	26.4985
5	242201	45.31	26.5341
5	242748	45.41	26.5903
5	243295	45.51	26.6633
5	243842	45.61	26.7501
5	244389	45.71	26.8483
5	244936	45.81	26.9558
5	245483	45.91	27.0709
5	246038	46.01	27.1923
5	246585	46.11	27.3189
5	247132	46.21	27.4496
5	247679	46.31	27.5838
5	248226	46.41	27.7209
5	248773	46.51	27.8603
5	249320	46.61	28.0015
5	249867	46.71	28.1444
5	250414	46.81	28.2885
5	250961	46.91	28.4337
5	251516	47.01	28.5762
5	252063	47.11	28.7097
5	252610	47.21	28.8283
5	253157	47.31	28.9269
5	253704	47.41	29.0016
5	254251	47.51	29.0492
5	254798	47.61	29.0676
5	255345	47.71	29.057
5	255892	47.81	29.0214
5	256439	47.91	28.9653
5	256994	48.01	28.8923
5	257541	48.11	28.8054
5	258088	48.21	28.7072
5	258635	48.31	28.5997
5	259182	48.41	28.4846
5	259729	48.51	28.3632
5	260276	48.61	28.2367
5	260823	48.71	28.1059
5	261370	48.81	27.9717
5	261917	48.91	27.8347
5	262472	49.01	27.6953
5	263019	49.11	27.554
5	263566	49.21	27.4112
5	264113	49.31	27.267
5	264660	49.41	27.1219
5	265207	49.51	26.9794
5	265754	49.61	26.8459
5	266301	49.71	26.7273
5	266848	49.81	26.6286
5	267395	49.91	26.554
5	267950	50.01	26.5063
5	268497	50.11	26.488
5	269044	50.21	26.4985
5	269591	50.31	26.5341
5	270138	50.41	26.5903
5	270685	50.51	26.6633
5	271232	50.61	26.7501
5	271779	50.71	26.8483
5	272326	50.81	26.9558
5	272873	50.91	27.0709
5	273428	51.01	27.1923
5	273975	51.11	27.3189
5	274522	51.21	27.4496
5	275069	51.31	27.5838
5	275616	51.41	27.7209
5	276163	51.51	27.8603
5	276710	51.61	28.0015
5	277257	51.71	28.1444
5	277804	51.81	28.2885
5	278351	51.91	28.4337
5	278906	52.01	28.5762
5	279453	52.11	28.7097
5	280000	52.21	28.8283
5	280547	52.31	28.9269
5	281094	52.41	29.0016
5	281641	52.51	29.0492
5	282188	52.61	29.0676
5	282735	52.71	29.057
5	283282	52.81	29.0214
5	283829	52.91	28.9653
5	284384	53.01	28.8923
5	284931	53.11	28.8054
5	285478	53.21	28.7072
5	286025	53.31	28.5997
5	286572	53.41	28.4846
5	287119	53.51	28.3632
5	287666	53.61	28.2367
5	288213	53.71	28.1059
5	288760	53.81	27.9717
5	289307	53.91	27.8347
5	289862	54.01	27.6953
5	290409	54.11	27.554
5	290956	54.21	27.4112
5	291503	54.31	27.267
5	292050	54.41	27.1219
5	292597	54.51	26.9794
5	293144	54.61	26.8459
5	293691	54.71	26.7273
5	294238	54.81	26.6286
5	294785	54.91	26.554
5	295340	55.01	26.5063
5	295887	55.11	26.488
5	296434	55.21	26.4985
5	296981	55.31	26.5341
5	297528	55.41	26.5903
5	298075	55.51	26.6633
5	298622	55.61	26.7501
5	299169	55.71	26.8483
5	299716	55.81	26.9558
5	300263	55.91	27.0709
5	300818	56.01	27.1923
5	301365	56.11	27.3189
5	301912	56.21	27.4496
5	302459	56.31	27.5838
5	303006	56.41	27.7209
5	303553	56.51	27.8603
5	304100	56.61	28.0015
5	304647	56.71	28.1444
5	305194	56.81	28.2885
5	305741	56.91	28.4337
5	306296	57.01	28.5762
5	306843	57.11	28.7097
5	307390	57.21	28.8283
5	307937	57.31	28.9269
5	308484	57.41	29.0016
5	309031	57.51	29.0492
5	309578	57.61	29.0676
5	310125	57.71	29.057
5	310672	57.81	29.0214
5	311219	57.91	28.9653
5	311774	58.01	28.8923
5	312321	58.11	28.8054
5	312868	58.21	28.7072
5	313415	58.31	28.5997
5	313962	58.41	28.4846
5	314509	58.51	28.3632
5	315056	58.61	28.2367
5	315603	58.71	28.1059
5	316150	58.81	27.9717
5	316697	58.91	27.8347
5	317252	59.01	27.6953
5	317799	59.11	27.554
5	318346	59.21	27.4112
5	318893	59.31	27.267
5	319440	59.41	27.1219
5	319987	59.51	26.9794
5	320534	59.61	26.8459
5	321081	59.71	26.7273
5	321628	59.81	26.6286
5	322175	59.91	26.554
1	113	1.11	0
1	659	1.21	0
1	1205	1.31	0
1	1751	1.41	0
1	2297	1.51	0
1	2843	1.61	0
1	3389	1.71	0
1	3935	1.81	0
1	4481	1.91	0
1	5035	2.01	0
1	5581	2.11	0
1	6127	2.21	0
1	6673	2.31	0
1	7219	2.41	0
1	7765	2.51	0
1	8311	2.61	0
1	8857	2.71	0
1	9403	2.81	0
1	9949	2.91	0
1	10503	3.01	0
1	11049	3.11	0
1	11595	3.21	0
1	12141	3.31	0
1	12687	3.41	0
1	13233	3.51	0
1	13779	3.61	0
1	14325	3.71	0
1	14871	3.81	0
1	15417	3.91	0
1	15971	4.01	0
1	16517	4.11	0
1	17063	4.21	0
1	17609	4.31	0
1	18155	4.41	0
1	18701	4.51	0
1	19247	4.61	0
1	19793	4.71	0
1	20339	4.81	0
1	20885	4.91	0
1	21440	5.01	0
1	21987	5.11	0
1	22534	5.21	0
1	23081	5.31	0
1	23628	5.41	0
1	24175	5.51	0
1	24722	5.61	0
1	25269	5.71	0
1	25816	5.81	0
1	26363	5.91	0
1	26918	6.01	0
1	27465	6.11	0
1	28012	6.21	0
1	28559	6.31	0
1	29106	6.41	0
1	29653	6.51	0
1	30200	6.61	0
1	30747	6.71	0
1	31294	6.81	0
1	31841	6.91	0
1	32396	7.01	0
1	32943	7.11	0
1	33490	7.21	0
1	34037	7.31	0
1	34584	7.41	0
1	35131	7.51	0
1	35678	7.61	0
1	36225	7.71	0
1	36772	7.81	0
1	37319	7.91	0
1	37874	8.01	0
1	38421	8.11	0
1	38968	8.21	0
1	39515	8.31	0
1	40062	8.41	0
1	40609	8.51	0
1	41156	8.61	0
1	41703	8.71	0
1	42250	8.81	0
1	42797	8.91	0
1	43352	9.01	0
1	43899	9.11	0
1	44446	9.21	0
1	44993	9.31	0
1	45540	9.41	0
1	46087	9.51	0
1	46634	9.61	0
1	47181	9.71	0
1	47728	9.81	0
1	48275	9.91	0
1	48830	10.01	0
1	49377	10.11	0
1	49924	10.21	0
1	50471	10.31	0
1	51018	10.41	0
1	51565	10.51	0
1	52112	10.61	0
1	52659	10.71	0
1	53206	10.81	0
1	53753	10.91	0
1	54308	11.01	0
1	54855	11.11	0
1	55402	11.21	0
1	55949	11.31	0
1	56496	11.41	0
1	57043	11.51	0
1	57590	11.61	0
1	58137	11.71	0
1	58684	11.81	0
1	59231	11.91	0
1	59786	12.01	0
1	60333	12.11	0
1	60880	12.21	0
1	61427	12.31	0
1	61974	12.41	0
1	62521	12.51	0
1	63068	12.61	0
1	63615	12.71	0
1	64162	12.81	0
1	64709	12.91	0
1	65264	13.01	0
1	65811	13.11	0
1	66358	13.21	0
1	66905	13.31	0
1	67452	13.41	0
1	67999	13.51	0
1	68546	13.61	0
1	69093	13.71	0
1	69640	13.81	0
1	70187	13.91	0
1	70742	14.01	0
1	71289	14.11	0
1	71836	14.21	0
1	72383	14.31	0
1	72930	14.41	0
1	73477	14.51	0
1	74024	14.61	0
1	74571	14.71	0
1	75118	14.81	0
1	75665	14.91	0
1	76220	15.01	0
1	76767	15.11	0
1	77314	15.21	0
1	77861	15.31	0
1	78408	15.41	0
1	78955	15.51	0
1	79502	15.61	0
1	80049	15.71	0
1	80596	15.81	0
1	81143	15.91	0
1	81698	16.01	0
1	82245	16.11	0
1	82792	16.21	0
1	83339	16.31	0
1	83886	16.41	0
1	84433	16.51	0
1	84980	16.61	0
1	85527	16.71	0
1	86074	16.81	0
1	86621	16.91	0
1	87176	17.01	0
1	87723	17.11	0
1	88270	17.21	0
1	88817	17.31	0
1	89364	17.41	0
1	89911	17.51	0
1	90458	17.61	0
1	91005	17.71	0
1	91552	17.81	0
1	92099	17.91	0
1	92654	18.01	0
1	93201	18.11	0
1	93748	18.21	0
1	94295	18.31	0
1	94842	18.41	0
1	95389	18.51	0
1	95936	18.61	0
1	96483	18.71	0
1	97030	18.81	0
1	97577	18.91	0
1	98132	19.01	0
1	98679	19.11	0
1	99226	19.21	0
1	99773	19.31	0
1	100320	19.41	0
1	100867	19.51	0
1	101414	19.61	0
1	101961	19.71	0
1	102508	19.81	0
1	103055	19.91	0
1	103610	20.01	0
1	104157	20.11	0
1	104704	20.21	0
1	105251	20.31	0
1	105798	20.41	0
1	106345	20.51	0
1	106892	20.61	0
1	107439	20.71	0
1	107986	20.81	0
1	108533	20.91	0
1	109088	21.01	0
1	109635	21.11	0
1	110182	21.21	0
1	110729	21.31	0
1	111276	21.41	0
1	111823	21.51	0
1	112370	21.61	0
1	112917	21.71	0
1	113464	21.81	0
1	114011	21.91	0
1	114566	22.01	0
1	115113	22.11	0
1	115660	22.21	0
1	116207	22.31	0
1	116754	22.41	0
1	117301	22.51	0
1	117848	22.61	0
1	118395	22.71	0
1	118942	22.81	0
1	119489	22.91	0
1	120044	23.01	0
1	120591	23.11	0
1	121138	23.21	0
1	121685	23.31	0
1	122232	23.41	0
1	122779	23.51	0
1	123326	23.61	0
1	123873	23.71	0
1	124420	23.81	0
1	124967	23.91	0
1	125522	24.01	0
1	126069	24.11	0
1	126616	24.21	0
1	127163	24.31	0
1	127710	24.41	0
1	128257	24.51	0
1	128804	24.61	0
1	129351	24.71	0
1	129898	24.81	0
1	130445	24.91	0
1	131000	25.01	0
1	131547	25.11	0
1	132094	25.21	0
1	132641	25.31	0
1	133188	25.41	0
1	133735	25.51	0
1	134282	25.61	0
1	134829	25.71	0
1	135376	25.81	0
1	135923	25.91	0
1	136478	26.01	0
1	137025	26.11	0
1	137572	26.21	0
1	138119	26.31	0
1	138666	26.41	0
1	139213	26.51	0
1	139760	26.61	0
1	140307	26.71	0
1	140854	26.81	0
1	141401	26.91	0
1	141956	27.01	0
1	142503	27.11	0
1	143050	27.21	0
1	143597	27.31	0
1	144144	27.41	0
1	144691	27.51	0
1	145238	27.61	0
1	145785	27.71	0
1	146332	27.81	0
1	146879	27.91	0
1	147434	28.01	0
1	147981	28.11	0
1	148528	28.21	0
1	149075	28.31	0
1	149622	28.41	0
1	150169	28.51	0
1	150716	28.61	0
1	151263	28.71	0
1	151810	28.81	0
1	152357	28.91	0
1	152912	29.01	0
1	153459	29.11	0
1	154006	29.21	0
1	154553	29.31	0
1	155100	29.41	0
1	155647	29.51	0
1	156194	29.61	0
1	156741	29.71	0
1	157288	29.81	0
1	157835	29.91	0
1	158390	30.01	0
1	158937	30.11	0
1	159484	30.21	0
1	160031	30.31	0
1	160578	30.41	0
1	161125	30.51	0
1	161672	30.61	0
1	162219	30.71	0
1	162766	30.81	0
1	163313	30.91	0
1	163868	31.01	0
1	164415	31.11	0
1	164962	31.21	0
1	165509	31.31	0
1	166056	31.41	0
1	166603	31.51	0
1	167150	31.61	0
1	167697	31.71	0
1	168244	31.81	0
1	168791	31.91	0
1	169346	32.01	0
1	169893	32.11	0
1	170440	32.21	0
1	170987	32.31	0
1	171534	32.41	0
1	172081	32.51	0
[...]
69	308119	57.354414909437	7
69	308666	57.454418578629	7
69	309213	57.554422248666	7
69	309760	57.654412919608	7
69	310307	57.7544165915	7
69	310848	57.854420264357	7
69	311395	57.954410938187	7
69	311950	58.054414612973	7
69	312497	58.154418288691	7
69	313044	58.254421965295	7
69	313591	58.354412642735	7
69	314138	58.454416320951	7
69	314685	58.554419999868	7
69	315232	58.654410679409	7
69	315779	58.754414359489	7
69	316326	58.854418040013	7
69	316873	58.954421720882	7
69	317428	59.054412401993	7
69	317975	59.154416083239	7
69	318522	59.254419764511	7
69	319069	59.35441044569	7
69	319616	59.454414126661	7
69	320163	59.554417807302	7
69	320710	59.654421487492	7
69	321257	59.754412167119	7
69	321804	59.854415846073	7
69	322351	59.954419524262	7
85	934	1.254880166434	7
85	1480	1.354857840043	7
85	2026	1.454874513652	7
85	2572	1.554826187261	7
85	3118	1.65489486087	7
85	3664	1.754859534477	7
85	4210	1.854876208084	7
85	4756	1.954866881691	7
85	5310	2.054896555297	7
85	5856	2.154848228902	7
85	6402	2.254864902505	7
85	6948	2.35481657611	7
85	7494	2.454807249712	7
85	8040	2.554862923314	7
85	8586	2.654879596913	7
85	9132	2.754883270511	7
85	9678	2.854860944107	7
85	10224	2.954890617703	7
85	10778	3.054829291297	7
85	11324	3.15481996489	7
85	11870	3.254823638481	7
85	12416	3.35487931207	7
85	12962	3.454843985656	7
85	13508	3.554834659241	7
85	14054	3.654890332824	7
85	14600	3.754842006406	7
85	15146	3.854884679985	7
85	15692	3.954836353562	7
85	16246	4.054814027137	7
85	16792	4.154856700711	7
85	17338	4.25482137428	7
85	17884	4.354838047846	7
85	18430	4.454841721412	7
85	18976	4.554871394975	7
85	19522	4.654875068535	7
85	20068	4.754852742092	7
85	20614	4.854830415646	7
85	21160	4.954873089196	7
85	21715	5.054798762743	7
85	22262	5.154867436288	7
85	22809	5.254832109834	7
85	23356	5.35488778339	7
85	23903	5.454878456976	7
85	24450	5.554830130618	7
85	24997	5.65489880436	7
85	25544	5.754798478256	7
85	26091	5.854880152367	7
85	26638	5.954831826772	7
85	27193	6.05479650155	7
85	27740	6.154839176789	7
85	28287	6.254868852588	7
85	28834	6.35485952905	7
85	29381	6.454889206288	7
85	29928	6.554801884421	7
85	30475	6.65481856357	7
85	31022	6.754809243863	7
85	31569	6.854825925429	7
85	32116	6.954894608393	7
85	32671	7.054833292873	7
85	33218	7.15484997898	7
85	33765	7.254892666816	7
85	34312	7.354896356464	7
85	34859	7.454887047994	7
85	35406	7.55487774146	7
85	35953	7.654881436902	7
85	36500	7.754872134343	7
85	37047	7.854888833798	7
85	37594	7.954892535267	7
85	38149	8.054857238743	7
85	38696	8.154834944204	7
85	39243	8.254838651625	7
85	39790	8.354803360965	7
85	40337	8.45483307218	7
85	40884	8.554797785213	7
85	41431	8.654827500002	7
85	41978	8.754883216474	7
85	42525	8.854886934551	7
85	43072	8.954877654146	7
85	43627	9.054829375166	7
85	44174	9.154820097509	7
85	44721	9.254797821066	7
85	45268	9.354801545724	7
85	45815	9.454857271364	7
85	46362	9.554860997855	7
85	46909	9.654799725066	7
85	47456	9.754894452869	7
85	48003	9.854807181139	7
85	48550	9.954888909759	7
85	49105	10.054827638622	7
85	49652	10.154844367642	7
85	50199	10.254887096739	7
85	50746	10.354825825853	7
85	51293	10.454881554935	7
85	51840	10.554898283945	7
85	52387	10.654850012856	7
85	52934	10.754853741646	7
85	53481	10.854870470301	7
85	54028	10.954861198814	7
85	54583	11.054838927182	7
85	55130	11.154842655409	7
85	55677	11.254820383504	7
85	56224	11.354837111479	7
85	56771	11.454879839353	7
85	57318	11.554831567147	7
85	57865	11.654835294885	7
85	58412	11.754839022599	7
85	58959	11.85485575032	7
85	59506	11.954846478089	7
85	60061	12.054824205938	7
85	60608	12.154827933905	7
85	61155	12.254805662015	7
85	61702	12.354861390285	7
85	62249	12.454852118719	7
85	62796	12.554881847303	7
85	63343	12.654846576014	7
85	63890	12.754824304805	7
85	64437	12.854802033621	7
85	64984	12.954818762394	7
85	65539	13.054796491045	7
85	66086	13.15483921949	7
85	66633	13.254881947637	7
85	67180	13.354898675387	7
85	67727	13.454837402639	7
85	68274	13.554867129287	7
85	68821	13.654831855224	7
85	69368	13.754809580338	7
85	69915	13.854839304516	7
85	70462	13.954804027648	7
85	71017	14.054846749618	7
85	71564	14.154798470314	7
85	72111	14.254815189623	7
85	72658	14.354831907431	7
85	73205	14.454887623629	7
85	73752	14.554826338108	7
85	74299	14.654882050768	7
85	74846	14.754807761519	7
85	75393	14.854798470286	7
85	75940	14.954802177012	7
85	76495	15.054844881657	7
85	77042	15.154887584204	7
85	77589	15.254839284661	7
85	78136	15.354881983049	7
85	78683	15.454859679414	7
85	79230	15.554798373809	7
85	79777	15.654893066306	7
85	80324	15.754883756988	7
85	80871	15.854887445949	7
85	81418	15.95480013329	7
85	81973	16.054842819122	7
85	82520	16.154898503564	7
85	83067	16.254863186741	7
85	83614	16.354853868783	7
85	84161	16.454883549824	7
85	84708	16.554809230005	7
85	85255	16.654864909469	7
85	85802	16.754855588361	7
85	86349	16.854807266831	7
85	86896	16.954862945029	7
85	87451	17.054853623101	7
85	87998	17.154844301191	7
85	88545	17.254821979436	7
85	89092	17.354825657954	7
85	89639	17.454868336848	7
85	90186	17.554846016206	7
85	90733	17.654797696092	7
85	91280	17.754853376553	7
85	91827	17.854857057613	7
85	92374	17.954886739282	7
85	92929	18.054864421554	7
85	93476	18.154842104411	7
85	94023	18.25484578782	7
85	94570	18.35484947174	7
85	95117	18.454840156121	7
85	95664	18.554830840902	7
85	96211	18.654821526012	7
85	96758	18.754812211377	7
85	97305	18.854828896913	7
85	97852	18.954845582531	7
85	98407	19.054823268137	7
85	98954	19.154839953636	7
85	99501	19.254843638921	7
85	100048	19.354860323886	7
85	100595	19.454890008421	7
85	101142	19.554867692419	7
85	101689	19.654858375769	7
85	102236	19.754849058374	7
85	102783	19.854852740147	7
85	103330	19.954856421016	7
85	103885	20.054886100924	7
85	104432	20.154837779835	7
85	104979	20.254893457734	7
85	105526	20.354871134618	7
85	106073	20.454835810504	7
85	106620	20.554878485421	7
85	107167	20.654856159411	7
85	107714	20.754885832521	7
85	108261	20.854824504814	7
85	108808	20.954893176362	7
85	109363	21.054844847239	7
85	109910	21.154835517533	7
85	110457	21.254813187333	7
85	111004	21.354868856736	7
85	111551	21.454820525841	7
85	112098	21.554811194757	7
85	112645	21.654801863593	7
85	113192	21.75488353246	7
85	113739	21.854848201475	7
85	114286	21.954838870754	7
85	114841	22.054842540419	7
85	115388	22.154833210582	7
85	115935	22.254797881347	7
85	116482	22.354814552807	7
85	117029	22.454896225042	7
85	117576	22.554860898113	7
85	118123	22.654890572057	7
85	118670	22.754868246899	7
85	119217	22.85485892264	7
85	119764	22.954875599269	7
85	120319	23.054879276763	7
85	120866	23.154817955082	7
85	121413	23.254795634177	7
85	121960	23.354812313991	7
85	122507	23.454802994455	7
85	123054	23.554884675495	7
85	123601	23.65483635703	7
85	124148	23.75489203897	7
85	124695	23.854843721221	7
85	125242	23.954873403683	7
85	125797	24.054851086251	7
85	126344	24.154828768817	7
85	126891	24.254819451274	7
85	127438	24.354823133503	7
85	127985	24.454852815391	7
85	128532	24.55481749682	7
85	129079	24.654873177679	7
85	129626	24.754876857863	7
85	130173	24.854802537282	7
85	130720	24.954858215859	7
85	131275	25.054809893533	7
85	131822	25.154891570266	7
85	132369	25.254830246038	7
85	132916	25.354807920848	7
85	133463	25.454876594706	7
85	134010	25.554815267642	7
85	134557	25.654870939695	7
85	135104	25.754848610913	7
85	135651	25.854813281358	7
85	136198	25.954894951095	7
85	136753	26.054833620204	7
85	137300	26.154889288768	7
85	137847	26.254853956876	7
85	138394	26.354896624624	7
85	138941	26.454809292113	7
85	139488	26.55489095945	7
85	140035	26.654881626741	7
85	140582	26.754885294099	7
85	141129	26.85484996164	7
85	141676	26.954840629482	7
85	142231	27.054870297741	7
85	142778	27.15488696653	7
85	143325	27.254864635957	7
85	143872	27.354803306111	7
85	144419	27.454832977071	7
85	144966	27.554810648897	7
85	145513	27.65485332163	7
85	146060	27.754804995289	7
85	146607	27.854873669878	7
85	147154	27.954838345385	7
85	147709	28.054842021783	7
85	148256	28.154871699034	7
85	148803	28.254862377089	7
85	149350	28.35485305589	7
85	149897	28.454869735367	7
85	150444	28.554860415444	7
85	150991	28.654864096042	7
85	151538	28.754854777069	7
85	152085	28.854832458429	7
85	152632	28.954875140022	7
85	153187	29.054800821747	7
85	153734	29.154843503492	7
85	154281	29.254821185146	7
85	154828	29.354837866595	7
85	155375	29.454802547722	7
85	155922	29.554845228408	7
85	156469	29.654874908541	7
85	157016	29.754813588017	7
85	157563	29.854882266744	7
85	158110	29.954846944645	7
85	158665	30.054811621661	7
85	159212	30.154854297751	7
85	159759	30.254896972895	7
85	160306	30.354874647088	7
85	160853	30.454878320347	7
85	161400	30.554881992696	7
85	161947	30.654898664174	7
85	162494	30.754811334831	7
85	163041	30.854815004725	7
85	163588	30.954883673925	7
85	164143	31.054809342507	7
85	164690	31.154891010553	7
85	165237	31.254881678155	7
85	165784	31.354859345408	7
85	166331	31.454837012413	7
85	166878	31.554801679271	7
85	167425	31.654896346093	7
85	167972	31.754861012993	7
85	168519	31.854812680083	7
85	169066	31.954855347482	7
85	169621	32.054885015308	7
85	170168	32.154836683673	7
85	170715	32.254827352681	7
85	171262	32.354857022424	7
85	171809	32.45487369298	7
85	172356	32.554825364408	7
85	172903	32.654803036748	7
85	173450	32.754819710022	7
85	173997	32.854836384234	7
85	174544	32.954840059369	7
85	175099	33.054895735401	7
85	175646	33.154860412293	7
85	176193	33.254812089996	7
85	176740	33.354828768449	7
85	177287	33.454845447584	7
85	177834	33.554797127326	7
85	178381	33.654878807592	7
85	178928	33.754895488292	7
85	179475	33.854821169331	7
85	180022	33.954876850608	7
85	180577	34.054841532019	7
85	181124	34.154858213456	7
85	181671	34.254809894806	7
85	182218	34.354865575955	7
85	182765	34.454843256786	7
85	183312	34.55485993718	7
85	183859	34.654850617026	7
85	184406	34.75484129622	7
85	184953	34.854805974669	7
85	185500	34.954874652294	7
85	186055	35.054878329038	7
85	186602	35.154882004861	7
85	187149	35.254807679742	7
85	187696	35.354889353678	7
85	188243	35.45485402668	7
85	188790	35.554857698775	7
85	189337	35.654887370003	7
85	189884	35.754891040414	7
85	190431	35.854855710065	7
85	190978	35.954872379025	7
85	191533	36.054837047371	7
85	192080	36.154801715186	7
85	192627	36.254818382556	7
85	193174	36.354796049581	7
85	193721	36.454799716358	7
85	194268	36.554829382994	7
85	194815	36.654885049598	7
85	195362	36.75488871628	7
85	195909	36.854827383157	7
85	196456	36.954857050345	7
85	197011	37.054795717962	7
85	197558	37.154838386122	7
85	198105	37.254829054925	7
85	198652	37.354832724466	7
85	199199	37.454888394823	7
85	199746	37.554879066055	7
85	200293	37.6548567382	7
85	200840	37.754873411283	7
85	201387	37.854825085303	7
85	201934	37.954880760251	7
85	202489	38.054884436098	7
85	203036	38.154862112807	7
85	203583	38.254800790328	7
85	204130	38.3548954686	7
85	204677	38.454821147559	7
85	205224	38.554824827125	7
85	205771	38.654828507217	7
85	206318	38.754858187745	7
85	206865	38.854822868613	7
85	207412	38.954813549723	7
85	207967	39.05489523097	7
85	208514	39.154872912242	7
85	209061	39.254798593431	7
85	209608	39.35481527442	7
85	210155	39.454831955094	7
85	210702	39.554848635332	7
85	211249	39.654813315023	7
85	211796	39.754855994063	7
85	212343	39.854872672361	7
85	212890	39.954824349838	7
85	213445	40.054802026435	7
85	213992	40.15483170211	7
85	214539	40.254874376845	7
85	215086	40.354891050636	7
85	215633	40.454816723495	7
85	216180	40.554846395451	7
85	216727	40.65488906654	7
85	217274	40.754801736812	7
85	217821	40.854896406327	7
85	218368	40.954874075153	7
85	218923	41.054799743365	7
85	219470	41.154855411046	7
85	220017	41.254833078286	7
85	220564	41.35488874518	7
85	221111	41.454866411831	7
85	221658	41.554805078341	7
85	222205	41.654860744819	7
85	222752	41.754864411377	7
85	223299	41.85488107813	7
85	223846	41.954845745196	7
85	224401	42.054849412692	7
85	224948	42.154814080732	7
85	225495	42.254843749418	7
85	226042	42.354808418843	7
85	226589	42.454890089084	7
85	227136	42.554867760202	7
85	227683	42.654884432235	7
85	228230	42.754888105206	7
85	228777	42.854878779117	7
85	229324	42.954895453954	7
85	229879	43.054834129695	7
85	230426	43.154798806295	7
85	230973	43.25489348371	7
85	231520	43.354845161878	7
85	232067	43.454861840732	7
85	232614	43.554878520195	7
85	233161	43.654882200185	7
85	233708	43.754898880612	7
85	234255	43.854863561381	7
85	234802	43.954802242391	7
85	235357	44.054896923538	7
85	235904	44.154874604714	7
85	236451	44.254826285807	7
85	236998	44.354803966701	7
85	237545	44.454898647279	7
85	238092	44.554798327424	7
85	238639	44.654828007022	7
85	239186	44.754831685971	7
85	239733	44.854887364178	7
85	240280	44.954839041564	7
85	240835	45.054842718073	7
85	241382	45.154833393661	7
85	241929	45.25486306831	7
85	242476	45.354879742014	7
85	243023	45.454818414789	7
85	243570	45.554809086659	7
85	244117	45.654851757665	7
85	244664	45.754868427854	7
85	245211	45.854859097286	7
85	245758	45.954849766029	7
85	246313	46.054892434161	7
85	246860	46.154805101762	7
85	247407	46.254886768925	7
85	247954	46.354851435741	7
85	248501	46.454894102315	7
85	249048	46.554897768748	7
85	249595	46.654862435151	7
85	250142	46.754801101634	7
85	250689	46.854843768314	7
85	251236	46.954834435307	7
85	251791	47.05482510273	7
85	252338	47.154815770697	7
85	252885	47.254806439313	7
85	253432	47.354810108667	7
85	253979	47.454891778838	7
85	254526	47.554843449885	7
85	255073	47.654860121849	7
85	255620	47.754889794752	7
85	256167	47.854841468595	7
85	256714	47.954845143367	7
85	257269	48.05479681904	7
85	257816	48.154800495575	7
85	258363	48.254804172925	7
85	258910	48.35488585103	7
85	259457	48.454811529821	7
85	260004	48.554867209221	7
85	260551	48.654896889149	7
85	261098	48.754835569515	7
85	261645	48.854865250223	7
85	262192	48.954881931174	7
85	262747	49.054872612262	7
85	263294	49.154850293379	7
85	263841	49.254840974413	7
85	264388	49.35488365525	7
85	264935	49.45488733577	7
85	265482	49.554813015858	7
85	266029	49.6548816954	7
85	266576	49.754898374292	7
85	267123	49.854863052443	7
85	267670	49.954853729776	7
85	268225	50.05481840623	7
85	268772	50.154848081765	7
85	269319	50.254838756358	7
85	269866	50.354894430011	7
85	270413	50.454820102734	7
85	270960	50.554823774552	7
85	271507	50.654840445507	7
85	272054	50.754870115647	7
85	272601	50.85483478503	7
85	273148	50.954825453726	7
85	273703	51.054829121808	7
85	274250	51.154832789362	7
85	274797	51.254836456476	7
85	275344	51.354827123245	7
85	275891	51.454843789771	7
85	276438	51.554808456158	7
85	276985	51.654825122514	7
85	277532	51.754815788952	7
85	278079	51.854897455585	7
85	278626	51.954823122533	7
85	279181	52.054865789912	7
85	279728	52.154856457835	7
85	280275	52.254886126405	7
85	280822	52.354824795716	7
85	281369	52.454841465845	7
85	281916	52.554832136851	7
85	282463	52.654835808774	7
85	283010	52.754865481635	7
85	283557	52.854830155438	7
85	284104	52.954872830169	7
85	284659	53.054863505801	7
85	285206	53.154802182297	7
85	285753	53.254805859607	7
85	286300	53.354861537672	7
85	286847	53.454839216424	7
85	287394	53.554881895786	7
85	287941	53.654807575676	7
85	288488	53.754798256004	7
85	289035	53.854827936676	7
85	289582	53.95480561759	7
85	290137	54.054874298642	7
85	290684	54.154890979723	7
85	291231	54.254803660721	7
85	291778	54.354859341521	7
85	292325	54.454876022007	7
85	292872	54.55480170206	7
85	293419	54.654818381569	7
85	293966	54.754874060428	7
85	294513	54.854799738547	7
85	295060	54.954881415844	7
85	295615	55.054885092265	7
85	296162	55.154836767767	7
85	296709	55.25480144233	7
85	297256	55.354883115951	7
85	297803	55.454808788644	7
85	298350	55.55481246043	7
85	298897	55.654894131355	7
85	299444	55.754845801464	7
85	299991	55.854849470817	7
85	300538	55.954827139481	7
85	301093	56.054830807533	7
85	301640	56.154808475056	7
85	302187	56.25489014214	7
85	302734	56.354828808881	7
85	303281	56.454897475378	7
85	303828	56.554836141737	7
85	304375	56.654852808064	7
85	304922	56.754869474475	7
85	305469	56.854834141081	7
85	306016	56.954798808002	7
85	306571	57.054841475354	7
85	307118	57.15481914325	7
85	307665	57.254822811792	7
85	308212	57.354813481076	7
85	308759	57.454856151177	7
85	309306	57.554807822157	7
85	309853	57.654837494054	7
85	310400	57.75489316689	7
85	310947	57.854844840666	7
85	311494	57.954861515371	7
85	312049	58.054891190978	7
85	312596	58.154868867451	7
85	313143	58.254859544737	7
85	313690	58.354837222777	7
85	314237	58.454801901505	7
85	314784	58.554870580842	7
85	315331	58.654887260709	7
85	315878	58.754825941014	7
85	316425	58.854894621663	7
85	316972	58.954820302552	7
85	317527	59.054797983579	7
85	318074	59.154892664637	7
85	318621	59.254831345613	7
85	319168	59.354848026392	7
85	319715	59.454851706856	7
85	320262	59.554842386888	7
85	320809	59.654859066374	7
85	321356	59.754797745213	7
85	321903	59.854853423309	7
85	322450	59.954844100587	7
115	4901	2	0
115	10369	3	0
115	15837	4	0
115	21306	5	0
115	26783	6	0
115	32261	7	0
115	37739	8	0
115	43217	9	0
115	48695	10	0
115	54173	11	0
115	59651	12	0
115	65129	13	0
115	70607	14	0
115	76085	15	0
115	81563	16	0
115	87041	17	0
115	92519	18	0
115	97997	19	0
115	103475	20	0
115	108953	21	0
115	114431	22	0
115	119909	23	0
115	125387	24	0
115	130865	25	0
115	136343	26	0
115	141821	27	0
115	147299	28	0
115	152777	29	0
115	158255	30	0
115	163733	31	0
115	169211	32	0
115	174689	33	0
115	180167	34	0
115	185645	35	0
115	191123	36	0
115	196601	37	0
115	202079	38	0
115	207557	39	0
115	213035	40	0
115	218513	41	0
115	223991	42	0
115	229469	43	0
115	234947	44	0
115	240425	45	0
115	245903	46	0
115	251381	47	0
115	256859	48	0
115	262337	49	0
115	267815	50	0
115	273293	51	0
115	278771	52	0
115	284249	53	0
115	289727	54	0
115	295205	55	0
115	300683	56	0
115	306161	57	0
115	311639	58	0
115	317117	59	0
115	322595	60	0
114	4901	2	0.021849
114	10369	3	0.02497
114	15837	4	0.02497
114	21306	5	0.02497
114	26783	6	0.02497
114	32261	7	0.02497
114	37739	8	0.02497
114	43217	9	0.02497
114	48695	10	0.02497
114	54173	11	0.02497
114	59651	12	0.02497
114	65129	13	0.02497
114	70607	14	0.02497
114	76085	15	0.02497
114	81563	16	0.02497
114	87041	17	0.02497
114	92519	18	0.02497
114	97997	19	0.02497
114	103475	20	0.02497
114	108953	21	0.02497
114	114431	22	0.02497
114	119909	23	0.02497
114	125387	24	0.02497
114	130865	25	0.02497
114	136343	26	0.02497
114	141821	27	0.02497
114	147299	28	0.02497
114	152777	29	0.02497
114	158255	30	0.02497
114	163733	31	0.02497
114	169211	32	0.02497
114	174689	33	0.02497
114	180167	34	0.02497
114	185645	35	0.02497
114	191123	36	0.02497
114	196601	37	0.02497
114	202079	38	0.02497
114	207557	39	0.02497
114	213035	40	0.02497
114	218513	41	0.02497
114	223991	42	0.02497
114	229469	43	0.02497
114	234947	44	0.02497
114	240425	45	0.02497
114	245903	46	0.02497
114	251381	47	0.02497
114	256859	48	0.02497
114	262337	49	0.02497
114	267815	50	0.02497
114	273293	51	0.02497
114	278771	52	0.02497
114	284249	53	0.02497
114	289727	54	0.02497
114	295205	55	0.02497
114	300683	56	0.02497
114	306161	57	0.02497
114	311639	58	0.02497
114	317117	59	0.02497
114	322595	60	0.02497
113	4901	2	7
113	10369	3	7
113	15837	4	7
113	21306	5	7
113	26783	6	7
113	32261	7	7
113	37739	8	7
113	43217	9	7
113	48695	10	7
113	54173	11	7
113	59651	12	7
113	65129	13	7
113	70607	14	7
113	76085	15	7
113	81563	16	7
113	87041	17	7
113	92519	18	7
113	97997	19	7
113	103475	20	7
113	108953	21	7
113	114431	22	7
113	119909	23	7
113	125387	24	7
113	130865	25	7
113	136343	26	7
113	141821	27	7
113	147299	28	7
113	152777	29	7
113	158255	30	7
113	163733	31	7
113	169211	32	7
113	174689	33	7
113	180167	34	7
113	185645	35	7
113	191123	36	7
113	196601	37	7
113	202079	38	7
113	207557	39	7
113	213035	40	7
113	218513	41	7
113	223991	42	7
113	229469	43	7
113	234947	44	7
113	240425	45	7
113	245903	46	7
113	251381	47	7
113	256859	48	7
113	262337	49	7
113	267815	50	7
113	273293	51	7
113	278771	52	7
113	284249	53	7
113	289727	54	7
113	295205	55	7
113	300683	56	7
113	306161	57	7
113	311639	58	7
113	317117	59	7
113	322595	60	7

