version 2
run JoinManeuverNoGui-1-20200515-19:25:50-7048
attr configname JoinManeuverNoGui
attr datetime 20200515-19:25:50
attr experiment JoinManeuverNoGui
attr inifile omnetpp.ini
attr iterationvars "$nCars=4, $platoonSize=4, $nLanes=1, $caccXi=2, $caccOmegaN=1, $ploegH=0.5, $leaderHeadway=1.2, $leaderSpeed=100, $beaconInterval=0.1, $priority=2, $packetSize=200"
attr iterationvarsf nCars=4,platoonSize=4,nLanes=1,caccXi=2,caccOmegaN=1,ploegH=0.5,leaderHeadway=1.2,leaderSpeed=100,beaconInterval=0.1,priority=2,packetSize=200-
attr measurement "$nCars=4, $platoonSize=4, $nLanes=1, $caccXi=2, $caccOmegaN=1, $ploegH=0.5, $leaderHeadway=1.2, $leaderSpeed=100, $beaconInterval=0.1, $priority=2, $packetSize=200"
attr network Highway
attr processid 7048
attr repetition 0
attr replication #0
attr resultdir results
attr runnumber 1
attr seedset 0
itervar beaconInterval 0.1
itervar caccOmegaN 1
itervar caccXi 2
itervar leaderHeadway 1.2
itervar leaderSpeed 100
itervar nCars 4
itervar nLanes 1
itervar packetSize 200
itervar platoonSize 4
itervar ploegH 0.5
itervar priority 2
param *.manager.command "\"sumo\""
param *.manager.ignoreGuiCommands true
param *.manager.command "\"sumo-gui\""
param *.manager.ignoreGuiCommands false
param *.node[*].scenario_type "\"JoinManeuverScenario\""
param *.playgroundSizeX 65000m
param *.playgroundSizeY 25000m
param *.playgroundSizeZ 50m
param *.annotations.draw false
param *.obstacles.debug false
param *.world.useTorus false
param *.world.use2D false
param *.manager.updateInterval 0.01s
param *.manager.host "\"localhost\""
param *.manager.moduleType "\"org.car2x.plexe.PlatoonCar\""
param *.manager.moduleName "\"node\""
param *.manager.moduleDisplayString "\"\""
param *.manager.autoShutdown true
param *.manager.margin 25
param *.connectionManager.sendDirect true
param *.connectionManager.maxInterfDist 2600m
param *.connectionManager.drawMaxIntfDist false
param *.**.nic.mac1609_4.useServiceChannel false
param *.**.nic.mac1609_4.txPower 100mW
param *.**.nic.mac1609_4.bitrate 6Mbps
param *.**.nic.mac1609_4.useAcks true
param *.**.nic.mac1609_4.ackErrorRate 0.0
param *.**.nic.mac1609_4.frameErrorRate 0.0
param *.**.nic.phy80211p.minPowerLevel -94dBm
param *.**.nic.phy80211p.maxTXPower 100mW
param *.**.nic.phy80211p.useNoiseFloor true
param *.**.nic.phy80211p.noiseFloor -95dBm
param *.**.nic.phy80211p.decider "xmldoc(\"config.xml\")"
param *.**.nic.phy80211p.analogueModels "xmldoc(\"config.xml\")"
param *.**.nic.phy80211p.usePropagationDelay true
param *.node[*].mobility.x 0
param *.node[*].mobility.y 0
param *.node[*].mobility.z 1.895
param **.seed 0
param *.manager.configFile "\"./sumocfg/freeway.sumo.cfg\""
param **.numberOfCars 4
param **.numberOfCarsPerPlatoon 4
param **.numberOfLanes 1
param **.controllerXi 2
param **.controllerOmegaN 1
param *.node[*].helper_type "\"PositionHelper\""
param *.node[*].scenario.caccC1 0.5
param *.node[*].scenario.caccXi 2
param *.node[*].scenario.caccOmegaN "1 Hz"
param *.node[*].scenario.caccSpacing "5 m"
param *.node[*].scenario.engineTau "0.5 s"
param *.node[*].scenario.ploegH 0.5s
param *.node[*].scenario.ploegKp 0.2
param *.node[*].scenario.ploegKd 0.7
param *.node[*].scenario.useRealisticEngine false
param **.numericController 0
param *.node[*].scenario.controller "\"CACC\""
param *.node[*].scenario.accHeadway "0.1 s"
param *.node[*].scenario.leaderHeadway 1.2s
param *.node[*].scenario.leaderSpeed 100kmph
param *.node[*].appl_type "\"GeneralPlatooningApp\""
param *.node[*].appl.joinManeuver "\"JoinAtBack\""
param *.node[*].protocol_type "\"SimplePlatooningBeaconing\""
param *.node[*].prot.beaconingInterval 0.1s
param *.node[*].prot.priority 2
param *.node[*].prot.packetSize 200
param *.node[*].unicast.packetLossRate 0
param **.traffic_type "\"JoinTrafficManager\""
param **.traffic.platoonInsertTime "1 s"
param **.traffic.platoonInsertSpeed 100kmph
param **.traffic.nCars 4
param **.traffic.platoonSize 4
param **.traffic.nLanes 1
param **.traffic.platooningVType "\"vtypeauto\""
param **.traffic.platoonInsertDistance "5 m"
param **.traffic.platoonInsertHeadway "0 s"
param **.traffic.platoonLeaderHeadway 1.2s

vector 0 Highway.node[0].appl distance ETV
vector 1 Highway.node[0].appl relativeSpeed ETV
vector 2 Highway.node[0].appl nodeId ETV
vector 3 Highway.node[0].appl acceleration ETV
vector 4 Highway.node[0].appl controllerAcceleration ETV
vector 5 Highway.node[0].appl speed ETV
vector 6 Highway.node[0].appl posx ETV
vector 7 Highway.node[0].appl posy ETV
vector 8 Highway.node[1].appl distance ETV
vector 9 Highway.node[1].appl relativeSpeed ETV
vector 10 Highway.node[1].appl nodeId ETV
vector 11 Highway.node[1].appl acceleration ETV
vector 12 Highway.node[1].appl controllerAcceleration ETV
vector 13 Highway.node[1].appl speed ETV
vector 14 Highway.node[1].appl posx ETV
vector 15 Highway.node[1].appl posy ETV
vector 16 Highway.node[2].appl distance ETV
vector 17 Highway.node[2].appl relativeSpeed ETV
vector 18 Highway.node[2].appl nodeId ETV
vector 19 Highway.node[2].appl acceleration ETV
vector 20 Highway.node[2].appl controllerAcceleration ETV
vector 21 Highway.node[2].appl speed ETV
vector 22 Highway.node[2].appl posx ETV
vector 23 Highway.node[2].appl posy ETV
vector 24 Highway.node[3].appl distance ETV
vector 25 Highway.node[3].appl relativeSpeed ETV
vector 26 Highway.node[3].appl nodeId ETV
vector 27 Highway.node[3].appl acceleration ETV
vector 28 Highway.node[3].appl controllerAcceleration ETV
vector 29 Highway.node[3].appl speed ETV
vector 30 Highway.node[3].appl posx ETV
vector 31 Highway.node[3].appl posy ETV
vector 32 Highway.node[3].prot frontDelay ETV
vector 33 Highway.node[3].prot frontDelayId ETV
vector 34 Highway.node[2].prot frontDelay ETV
vector 35 Highway.node[2].prot frontDelayId ETV
vector 36 Highway.node[1].prot leaderDelay ETV
vector 37 Highway.node[1].prot leaderDelayId ETV
vector 38 Highway.node[1].prot frontDelay ETV
vector 39 Highway.node[1].prot frontDelayId ETV
vector 40 Highway.node[2].prot leaderDelay ETV
vector 41 Highway.node[2].prot leaderDelayId ETV
vector 42 Highway.node[3].prot leaderDelay ETV
vector 43 Highway.node[3].prot leaderDelayId ETV
vector 44 Highway.node[0].prot nodeId ETV
vector 45 Highway.node[0].prot busyTime ETV
vector 46 Highway.node[0].prot collisions ETV
vector 47 Highway.node[1].prot nodeId ETV
vector 48 Highway.node[1].prot busyTime ETV
vector 49 Highway.node[1].prot collisions ETV
vector 50 Highway.node[2].prot nodeId ETV
vector 51 Highway.node[2].prot busyTime ETV
vector 52 Highway.node[2].prot collisions ETV
vector 53 Highway.node[3].prot nodeId ETV
vector 54 Highway.node[3].prot busyTime ETV
vector 55 Highway.node[3].prot collisions ETV
vector 56 Highway.node[4].appl distance ETV
vector 57 Highway.node[4].appl relativeSpeed ETV
vector 58 Highway.node[4].appl nodeId ETV
vector 59 Highway.node[4].appl acceleration ETV
vector 60 Highway.node[4].appl controllerAcceleration ETV
vector 61 Highway.node[4].appl speed ETV
vector 62 Highway.node[4].appl posx ETV
vector 63 Highway.node[4].appl posy ETV
vector 64 Highway.node[4].prot leaderDelay ETV
vector 65 Highway.node[4].prot leaderDelayId ETV
vector 66 Highway.node[4].prot nodeId ETV
vector 67 Highway.node[4].prot busyTime ETV
vector 68 Highway.node[4].prot collisions ETV
vector 69 Highway.node[4].prot frontDelay ETV
vector 70 Highway.node[4].prot frontDelayId ETV
4	113	1.11	-0.00218518
4	263	1.21	-0.00213419
4	413	1.31	-0.00205408
4	563	1.41	-0.00195152
4	713	1.51	-0.00183238
4	863	1.61	-0.00170178
4	1013	1.71	-0.00156412
4	1163	1.81	-0.00142314
4	1313	1.91	-0.00128196
4	1467	2.01	-0.00114315
4	1617	2.11	-0.00100877
4	1767	2.21	-0.000880447
4	1917	2.31	-0.000759381
4	2067	2.41	-0.000646445
4	2217	2.51	-0.000542204
4	2367	2.61	-0.000446965
4	2517	2.71	-0.000360819
4	2667	2.81	-0.000283678
4	2817	2.91	-0.000215307
4	2971	3.01	-0.000155357
4	3121	3.11	-0.000103391
4	3271	3.21	-5.89069e-05
4	3421	3.31	-2.13575e-05
4	3571	3.41	9.82919e-06
4	3721	3.51	3.52368e-05
4	3871	3.61	5.54479e-05
4	4021	3.71	7.10335e-05
4	4171	3.81	8.25451e-05
4	4321	3.91	9.05081e-05
4	4475	4.01	9.54172e-05
4	4625	4.11	9.7733e-05
4	4775	4.21	9.78798e-05
4	4925	4.31	9.62447e-05
4	5075	4.41	9.31771e-05
4	5225	4.51	8.89894e-05
4	5375	4.61	8.39579e-05
4	5525	4.71	7.83245e-05
4	5675	4.81	7.22983e-05
4	5825	4.91	6.6058e-05
4	5979	5.01	5.9754e-05
4	6129	5.11	5.35107e-05
4	6279	5.21	4.74294e-05
4	6429	5.31	4.15898e-05
4	6579	5.41	3.60534e-05
4	6729	5.51	3.0865e-05
4	6879	5.61	2.60551e-05
4	7029	5.71	2.16419e-05
4	7179	5.81	1.76335e-05
4	7329	5.91	1.40289e-05
4	7484	6.01	1.08202e-05
4	7666	6.11	7.99392e-06
4	7891	6.21	5.532e-06
4	8116	6.31	3.41315e-06
4	8341	6.41	1.61374e-06
4	8566	6.51	1.08654e-07
4	8791	6.61	-1.12799e-06
4	9016	6.71	-2.12224e-06
4	9241	6.81	-2.89981e-06
4	9466	6.91	-3.48567e-06
4	9696	7.01	-3.90376e-06
4	9921	7.11	-4.17673e-06
4	10146	7.21	-4.32574e-06
4	10371	7.31	-4.3704e-06
4	10596	7.41	-4.32865e-06
4	10821	7.51	-4.21676e-06
4	11046	7.61	-4.04934e-06
4	11271	7.71	-3.83937e-06
4	11496	7.81	-3.59826e-06
4	11721	7.91	-3.33592e-06
4	11951	8.01	-3.06089e-06
4	12176	8.11	-2.78036e-06
4	12401	8.21	-2.50036e-06
4	12626	8.31	-2.22582e-06
4	12851	8.41	-1.96068e-06
4	13076	8.51	-1.708e-06
4	13301	8.61	-1.47009e-06
4	13526	8.71	-1.24855e-06
4	13751	8.81	-1.04441e-06
4	13976	8.91	-8.58219e-07
4	14206	9.01	-6.90082e-07
4	14431	9.11	-5.39774e-07
4	14656	9.21	-4.06787e-07
4	14881	9.31	-2.90396e-07
4	15106	9.41	-1.89707e-07
4	15331	9.51	-1.03704e-07
4	15556	9.61	-3.12909e-08
4	15781	9.71	2.86736e-08
4	16006	9.81	7.73515e-08
4	16231	9.91	1.15897e-07
4	16461	10.01	1.45439e-07
4	16686	10.11	1.67065e-07
4	16911	10.21	1.81809e-07
4	17136	10.31	1.90644e-07
4	17361	10.41	1.94472e-07
4	17586	10.51	1.94125e-07
4	17811	10.61	1.90358e-07
4	18036	10.71	1.83853e-07
4	18261	10.81	1.75219e-07
4	18486	10.91	1.64994e-07
4	18716	11.01	1.53647e-07
4	18941	11.11	1.41582e-07
4	19166	11.21	1.29146e-07
4	19391	11.31	1.16627e-07
4	19616	11.41	1.04266e-07
4	19841	11.51	9.22547e-08
4	20066	11.61	8.07471e-08
4	20291	11.71	6.98584e-08
4	20516	11.81	5.96732e-08
4	20741	11.91	5.02471e-08
4	20971	12.01	4.16133e-08
4	21196	12.11	3.37845e-08
4	21421	12.21	2.67558e-08
4	21646	12.31	2.05102e-08
4	21871	12.41	1.50187e-08
4	22096	12.51	1.02442e-08
4	22321	12.61	6.14406e-09
4	22546	12.71	2.67022e-09
4	22771	12.81	-2.27374e-10
4	22996	12.91	-2.60059e-09
4	23226	13.01	-4.50058e-09
4	23451	13.11	-5.97851e-09
4	23676	13.21	-7.08376e-09
4	23901	13.31	-7.86322e-09
4	24126	13.41	-8.36167e-09
4	24351	13.51	-8.62066e-09
4	24576	13.61	-8.67857e-09
4	24801	13.71	-8.57057e-09
4	25026	13.81	-8.32792e-09
4	25251	13.91	-7.97975e-09
4	25481	14.01	-7.55094e-09
4	25706	14.11	-7.06351e-09
4	25931	14.21	-6.53699e-09
4	26156	14.31	-5.98774e-09
4	26381	14.41	-5.42997e-09
4	26606	14.51	-4.87468e-09
4	26831	14.61	-4.33182e-09
4	27056	14.71	-3.80886e-09
4	27281	14.81	-3.31148e-09
4	27506	14.91	-2.8443e-09
4	27736	15.01	-2.40981e-09
4	27961	15.11	-2.01013e-09
4	28186	15.21	-1.64633e-09
4	28411	15.31	-1.31806e-09
4	28636	15.41	-1.02531e-09
4	28861	15.51	-7.66676e-10
4	29086	15.61	-5.40723e-10
4	29311	15.71	-3.46034e-10
4	29536	15.81	-1.79767e-10
4	29761	15.91	-4.01457e-11
4	29992	16.01	7.49623e-11
4	30406	16.11	1.68043e-10
4	30631	16.21	2.41585e-10
4	30856	16.31	2.97362e-10
4	31081	16.41	3.37863e-10
4	31306	16.51	3.64864e-10
4	31531	16.61	3.80851e-10
4	31756	16.71	3.86891e-10
4	31981	16.81	3.84759e-10
4	32206	16.91	3.76232e-10
4	32436	17.01	3.62377e-10
4	32661	17.11	3.44613e-10
4	32886	17.21	3.24007e-10
4	33111	17.31	3.00915e-10
4	33336	17.41	2.76756e-10
4	33561	17.51	2.52243e-10
4	33786	17.61	2.27374e-10
4	34011	17.71	2.0286e-10
4	34236	17.81	1.79057e-10
4	34461	17.91	1.56319e-10
4	34691	18.01	1.35003e-10
4	34916	18.11	1.15108e-10
4	35141	18.21	9.66338e-11
4	35366	18.31	7.99361e-11
4	35591	18.41	6.46594e-11
4	35816	18.51	5.08038e-11
4	36041	18.61	3.83693e-11
4	36266	18.71	2.73559e-11
4	36491	18.81	1.77636e-11
4	36716	18.91	9.59233e-12
4	36946	19.01	2.84217e-12
4	37171	19.11	-2.84217e-12
4	37396	19.21	-7.4607e-12
4	37621	19.31	-1.13687e-11
4	37846	19.41	-1.42109e-11
4	38071	19.51	-1.63425e-11
4	38296	19.61	-1.77636e-11
4	38521	19.71	-1.84741e-11
4	38746	19.81	-1.88294e-11
4	38971	19.91	-1.88294e-11
4	39201	20.01	-1.88294e-11
4	39426	20.11	-1.81188e-11
4	39651	20.21	-1.7053e-11
4	39876	20.31	-1.63425e-11
4	40101	20.41	-1.52767e-11
4	40326	20.51	-1.45661e-11
4	40551	20.61	-1.35003e-11
4	40776	20.71	-1.27898e-11
4	41001	20.81	-1.1724e-11
4	41226	20.91	-1.10134e-11
4	41456	21.01	-9.9476e-12
4	41681	21.11	-9.23706e-12
4	41906	21.21	-8.17124e-12
4	42131	21.31	-7.4607e-12
4	42356	21.41	-6.39488e-12
4	42581	21.51	-5.68434e-12
4	42806	21.61	-4.61853e-12
4	43031	21.71	-3.90799e-12
4	43256	21.81	-2.84217e-12
4	43481	21.91	-2.13163e-12
4	43711	22.01	-1.06581e-12
4	43936	22.11	-3.55271e-13
4	44161	22.21	7.10543e-13
4	44386	22.31	1.42109e-12
4	44611	22.41	2.13163e-12
4	44836	22.51	2.84217e-12
4	45061	22.61	3.19744e-12
4	45286	22.71	3.90799e-12
4	45511	22.81	4.26326e-12
4	45736	22.91	4.61853e-12
4	45966	23.01	5.32907e-12
4	46191	23.11	5.68434e-12
4	46416	23.21	5.68434e-12
4	46641	23.31	6.03961e-12
4	46866	23.41	6.39488e-12
4	47091	23.51	6.75016e-12
4	47316	23.61	6.75016e-12
4	47541	23.71	7.10543e-12
4	47766	23.81	7.10543e-12
4	47991	23.91	7.4607e-12
4	48221	24.01	7.4607e-12
4	48446	24.11	7.81597e-12
4	48671	24.21	7.81597e-12
4	48896	24.31	7.81597e-12
4	49121	24.41	7.81597e-12
4	49346	24.51	8.17124e-12
4	49571	24.61	8.17124e-12
4	49796	24.71	8.17124e-12
4	50021	24.81	8.17124e-12
4	50246	24.91	8.17124e-12
4	50476	25.01	8.52651e-12
4	50701	25.11	8.52651e-12
4	50926	25.21	8.52651e-12
4	51151	25.31	8.52651e-12
4	51376	25.41	8.52651e-12
4	51601	25.51	8.52651e-12
4	51826	25.61	8.52651e-12
4	52051	25.71	8.52651e-12
4	52276	25.81	8.52651e-12
4	52501	25.91	8.52651e-12
4	52731	26.01	8.88178e-12
4	52956	26.11	8.88178e-12
4	53181	26.21	8.88178e-12
4	53406	26.31	8.88178e-12
4	53631	26.41	8.88178e-12
4	53856	26.51	8.88178e-12
4	54081	26.61	8.88178e-12
4	54306	26.71	8.88178e-12
4	54531	26.81	8.88178e-12
4	54756	26.91	8.88178e-12
4	54986	27.01	8.88178e-12
4	55211	27.11	8.88178e-12
4	55436	27.21	8.88178e-12
4	55661	27.31	8.88178e-12
4	55886	27.41	8.88178e-12
4	56111	27.51	8.88178e-12
4	56336	27.61	8.88178e-12
4	56561	27.71	8.88178e-12
4	56786	27.81	8.88178e-12
4	57011	27.91	8.88178e-12
4	57241	28.01	8.88178e-12
4	57466	28.11	8.88178e-12
4	57691	28.21	8.88178e-12
4	57916	28.31	8.88178e-12
4	58141	28.41	8.88178e-12
4	58366	28.51	8.88178e-12
4	58591	28.61	8.88178e-12
4	58816	28.71	8.88178e-12
4	59041	28.81	8.88178e-12
4	59266	28.91	8.88178e-12
4	59496	29.01	8.88178e-12
4	59721	29.11	8.88178e-12
4	59946	29.21	8.88178e-12
4	60171	29.31	8.88178e-12
4	60396	29.41	8.88178e-12
4	60621	29.51	8.88178e-12
4	60846	29.61	8.88178e-12
4	61071	29.71	8.88178e-12
4	61296	29.81	8.88178e-12
4	61521	29.91	8.88178e-12
4	61751	30.01	8.88178e-12
4	61976	30.11	8.88178e-12
4	62201	30.21	8.88178e-12
4	62426	30.31	8.88178e-12
4	62651	30.41	8.88178e-12
4	62876	30.51	8.88178e-12
4	63101	30.61	8.88178e-12
4	63326	30.71	8.88178e-12
4	63551	30.81	8.88178e-12
4	63776	30.91	8.88178e-12
4	64006	31.01	8.88178e-12
4	64231	31.11	8.88178e-12
4	64456	31.21	8.88178e-12
4	64681	31.31	8.88178e-12
4	64906	31.41	8.88178e-12
4	65131	31.51	8.88178e-12
4	65356	31.61	8.88178e-12
4	65581	31.71	8.88178e-12
4	65806	31.81	8.88178e-12
4	66031	31.91	8.88178e-12
4	66261	32.01	8.88178e-12
4	66486	32.11	8.88178e-12
4	66711	32.21	8.88178e-12
4	66936	32.31	8.88178e-12
4	67161	32.41	8.88178e-12
4	67386	32.51	8.88178e-12
4	67611	32.61	8.88178e-12
4	67836	32.71	8.88178e-12
4	68061	32.81	8.88178e-12
4	68286	32.91	8.88178e-12
4	68516	33.01	8.88178e-12
4	68741	33.11	8.88178e-12
4	68966	33.21	8.88178e-12
4	69191	33.31	8.88178e-12
4	69416	33.41	8.88178e-12
4	69641	33.51	8.88178e-12
4	69866	33.61	8.88178e-12
4	70091	33.71	8.88178e-12
4	70316	33.81	8.88178e-12
4	70541	33.91	8.88178e-12
4	70771	34.01	8.88178e-12
4	70996	34.11	8.88178e-12
4	71221	34.21	8.88178e-12
4	71446	34.31	8.88178e-12
4	71671	34.41	8.88178e-12
4	71896	34.51	8.88178e-12
4	72121	34.61	8.88178e-12
4	72346	34.71	8.88178e-12
4	72571	34.81	8.88178e-12
4	72796	34.91	8.88178e-12
4	73026	35.01	8.88178e-12
4	73251	35.11	8.88178e-12
4	73476	35.21	8.88178e-12
4	73701	35.31	8.88178e-12
4	73926	35.41	8.88178e-12
4	74151	35.51	8.88178e-12
4	74376	35.61	8.88178e-12
4	74601	35.71	8.88178e-12
4	74826	35.81	8.88178e-12
4	75051	35.91	8.88178e-12
4	75281	36.01	8.88178e-12
4	75506	36.11	8.88178e-12
4	75731	36.21	8.88178e-12
4	75956	36.31	8.88178e-12
4	76181	36.41	8.88178e-12
4	76406	36.51	8.88178e-12
4	76631	36.61	8.88178e-12
4	76856	36.71	8.88178e-12
4	77081	36.81	8.88178e-12
4	77306	36.91	8.88178e-12
4	77536	37.01	8.88178e-12
4	77761	37.11	8.88178e-12
4	77986	37.21	8.88178e-12
4	78211	37.31	8.88178e-12
4	78436	37.41	8.88178e-12
4	78661	37.51	8.88178e-12
4	78886	37.61	8.88178e-12
4	79111	37.71	8.88178e-12
4	79336	37.81	8.88178e-12
4	79561	37.91	8.88178e-12
4	79791	38.01	8.88178e-12
4	80016	38.11	8.88178e-12
4	80241	38.21	8.88178e-12
4	80466	38.31	8.88178e-12
4	80691	38.41	8.88178e-12
4	80916	38.51	8.88178e-12
4	81141	38.61	8.88178e-12
4	81366	38.71	8.88178e-12
4	81591	38.81	8.88178e-12
4	81816	38.91	8.88178e-12
4	82046	39.01	8.88178e-12
4	82271	39.11	8.88178e-12
4	82496	39.21	8.88178e-12
4	82721	39.31	8.88178e-12
4	82946	39.41	8.88178e-12
4	83171	39.51	8.88178e-12
4	83396	39.61	8.88178e-12
4	83621	39.71	8.88178e-12
4	83846	39.81	8.88178e-12
4	84071	39.91	8.88178e-12
4	84301	40.01	8.88178e-12
4	84526	40.11	8.88178e-12
4	84751	40.21	8.88178e-12
4	84976	40.31	8.88178e-12
4	85201	40.41	8.88178e-12
4	85426	40.51	8.88178e-12
4	85651	40.61	8.88178e-12
4	85876	40.71	8.88178e-12
4	86101	40.81	8.88178e-12
4	86326	40.91	8.88178e-12
4	86556	41.01	8.88178e-12
4	86781	41.11	8.88178e-12
4	87006	41.21	8.88178e-12
4	87231	41.31	8.88178e-12
4	87456	41.41	8.88178e-12
4	87681	41.51	8.88178e-12
4	87906	41.61	8.88178e-12
4	88131	41.71	8.88178e-12
4	88356	41.81	8.88178e-12
4	88581	41.91	8.88178e-12
4	88811	42.01	8.88178e-12
4	89036	42.11	8.88178e-12
4	89261	42.21	8.88178e-12
4	89486	42.31	8.88178e-12
4	89711	42.41	8.88178e-12
4	89936	42.51	8.88178e-12
4	90161	42.61	8.88178e-12
4	90386	42.71	8.88178e-12
4	90611	42.81	8.88178e-12
4	90836	42.91	8.88178e-12
4	91066	43.01	8.88178e-12
4	91291	43.11	8.88178e-12
4	91516	43.21	8.88178e-12
4	91741	43.31	8.88178e-12
4	91966	43.41	8.88178e-12
4	92191	43.51	8.88178e-12
4	92416	43.61	8.88178e-12
4	92641	43.71	8.88178e-12
4	93307	43.81	8.88178e-12
4	93532	43.91	8.88178e-12
4	93762	44.01	8.88178e-12
4	93987	44.11	8.88178e-12
4	94212	44.21	8.88178e-12
4	94437	44.31	8.88178e-12
4	94662	44.41	8.88178e-12
4	94887	44.51	8.88178e-12
4	95112	44.61	8.88178e-12
4	95337	44.71	8.88178e-12
4	95562	44.81	8.88178e-12
4	95787	44.91	8.88178e-12
4	96017	45.01	8.88178e-12
4	96242	45.11	8.88178e-12
4	96467	45.21	8.88178e-12
4	96692	45.31	8.88178e-12
4	96917	45.41	8.88178e-12
4	97142	45.51	8.88178e-12
4	97367	45.61	8.88178e-12
4	97592	45.71	8.88178e-12
4	97817	45.81	8.88178e-12
4	98042	45.91	8.88178e-12
4	98272	46.01	8.88178e-12
4	98497	46.11	8.88178e-12
4	98722	46.21	8.88178e-12
4	98947	46.31	8.88178e-12
4	99172	46.41	8.88178e-12
4	99397	46.51	8.88178e-12
4	99622	46.61	8.88178e-12
4	99847	46.71	8.88178e-12
4	100072	46.81	8.88178e-12
4	100297	46.91	8.88178e-12
4	100527	47.01	8.88178e-12
4	100752	47.11	8.88178e-12
4	100977	47.21	8.88178e-12
4	101202	47.31	8.88178e-12
4	101427	47.41	8.88178e-12
4	101652	47.51	8.88178e-12
4	101877	47.61	8.88178e-12
4	102102	47.71	8.88178e-12
4	102327	47.81	8.88178e-12
4	102552	47.91	8.88178e-12
4	102782	48.01	8.88178e-12
4	103007	48.11	8.88178e-12
4	103232	48.21	8.88178e-12
4	103457	48.31	8.88178e-12
4	103682	48.41	8.88178e-12
4	103907	48.51	8.88178e-12
4	104132	48.61	8.88178e-12
4	104357	48.71	8.88178e-12
4	104582	48.81	8.88178e-12
4	104807	48.91	8.88178e-12
4	105037	49.01	8.88178e-12
4	105262	49.11	8.88178e-12
4	105487	49.21	8.88178e-12
4	105712	49.31	8.88178e-12
4	105937	49.41	8.88178e-12
4	106162	49.51	8.88178e-12
4	106387	49.61	8.88178e-12
4	106612	49.71	8.88178e-12
4	106837	49.81	8.88178e-12
4	107062	49.91	8.88178e-12
4	107292	50.01	8.88178e-12
4	107517	50.11	8.88178e-12
4	107742	50.21	8.88178e-12
4	107967	50.31	8.88178e-12
4	108192	50.41	8.88178e-12
4	108417	50.51	8.88178e-12
4	108642	50.61	8.88178e-12
4	108867	50.71	8.88178e-12
4	109092	50.81	8.88178e-12
4	109317	50.91	8.88178e-12
4	109547	51.01	8.88178e-12
4	109772	51.11	8.88178e-12
4	109997	51.21	8.88178e-12
4	110222	51.31	8.88178e-12
4	110447	51.41	8.88178e-12
4	110672	51.51	8.88178e-12
4	110897	51.61	8.88178e-12
4	111122	51.71	8.88178e-12
4	111347	51.81	8.88178e-12
4	111572	51.91	8.88178e-12
4	111802	52.01	8.88178e-12
4	112027	52.11	8.88178e-12
4	112252	52.21	8.88178e-12
4	112477	52.31	8.88178e-12
4	112702	52.41	8.88178e-12
4	112927	52.51	8.88178e-12
4	113152	52.61	8.88178e-12
4	113377	52.71	8.88178e-12
4	113602	52.81	8.88178e-12
4	113827	52.91	8.88178e-12
4	114057	53.01	8.88178e-12
4	114282	53.11	8.88178e-12
4	114507	53.21	8.88178e-12
4	114732	53.31	8.88178e-12
4	114957	53.41	8.88178e-12
4	115182	53.51	8.88178e-12
4	115407	53.61	8.88178e-12
4	115632	53.71	8.88178e-12
4	115857	53.81	8.88178e-12
4	116082	53.91	8.88178e-12
4	116312	54.01	8.88178e-12
4	116537	54.11	8.88178e-12
4	116762	54.21	8.88178e-12
4	116987	54.31	8.88178e-12
4	117212	54.41	8.88178e-12
4	117437	54.51	8.88178e-12
4	117662	54.61	8.88178e-12
4	117887	54.71	8.88178e-12
4	118112	54.81	8.88178e-12
4	118337	54.91	8.88178e-12
4	118567	55.01	8.88178e-12
4	118792	55.11	8.88178e-12
4	119017	55.21	8.88178e-12
4	119242	55.31	8.88178e-12
4	119467	55.41	8.88178e-12
4	119692	55.51	8.88178e-12
4	119917	55.61	8.88178e-12
4	120142	55.71	8.88178e-12
4	120367	55.81	8.88178e-12
4	120592	55.91	8.88178e-12
4	120822	56.01	8.88178e-12
4	121047	56.11	8.88178e-12
4	121272	56.21	8.88178e-12
4	121497	56.31	8.88178e-12
4	121722	56.41	8.88178e-12
4	121947	56.51	8.88178e-12
4	122172	56.61	8.88178e-12
4	122397	56.71	8.88178e-12
4	122622	56.81	8.88178e-12
4	122847	56.91	8.88178e-12
4	123077	57.01	8.88178e-12
4	123302	57.11	8.88178e-12
4	123527	57.21	8.88178e-12
4	123752	57.31	8.88178e-12
4	123977	57.41	8.88178e-12
4	124202	57.51	8.88178e-12
4	124427	57.61	8.88178e-12
4	124652	57.71	8.88178e-12
4	124877	57.81	8.88178e-12
4	125102	57.91	8.88178e-12
4	125332	58.01	8.88178e-12
4	125557	58.11	8.88178e-12
4	125782	58.21	8.88178e-12
4	126007	58.31	8.88178e-12
4	126232	58.41	8.88178e-12
4	126457	58.51	8.88178e-12
4	126682	58.61	8.88178e-12
4	126907	58.71	8.88178e-12
4	127132	58.81	8.88178e-12
4	127357	58.91	8.88178e-12
4	127587	59.01	8.88178e-12
4	127812	59.11	8.88178e-12
4	128037	59.21	8.88178e-12
4	128262	59.31	8.88178e-12
4	128487	59.41	8.88178e-12
4	128712	59.51	8.88178e-12
4	128937	59.61	8.88178e-12
4	129162	59.71	8.88178e-12
4	129387	59.81	8.88178e-12
4	129612	59.91	8.88178e-12
4	129842	60.01	8.88178e-12
4	130067	60.11	8.88178e-12
4	130292	60.21	8.88178e-12
4	130517	60.31	8.88178e-12
4	130742	60.41	8.88178e-12
4	130967	60.51	8.88178e-12
4	131192	60.61	8.88178e-12
4	131417	60.71	8.88178e-12
4	131642	60.81	8.88178e-12
4	131867	60.91	8.88178e-12
4	132097	61.01	8.88178e-12
4	132322	61.11	8.88178e-12
4	132547	61.21	8.88178e-12
4	132772	61.31	8.88178e-12
4	132997	61.41	8.88178e-12
4	133222	61.51	8.88178e-12
4	133447	61.61	8.88178e-12
4	133672	61.71	8.88178e-12
4	133897	61.81	8.88178e-12
4	134122	61.91	8.88178e-12
4	134352	62.01	8.88178e-12
4	134577	62.11	8.88178e-12
4	134802	62.21	8.88178e-12
4	135027	62.31	8.88178e-12
4	135252	62.41	8.88178e-12
4	135477	62.51	8.88178e-12
4	135702	62.61	8.88178e-12
4	135927	62.71	8.88178e-12
4	136152	62.81	8.88178e-12
4	136377	62.91	8.88178e-12
4	136607	63.01	8.88178e-12
4	136832	63.11	8.88178e-12
4	137057	63.21	8.88178e-12
4	137282	63.31	8.88178e-12
4	137507	63.41	8.88178e-12
4	137732	63.51	8.88178e-12
4	137957	63.61	8.88178e-12
4	138182	63.71	8.88178e-12
4	138407	63.81	8.88178e-12
4	138632	63.91	8.88178e-12
4	138862	64.01	8.88178e-12
4	139087	64.11	8.88178e-12
4	139312	64.21	8.88178e-12
4	139537	64.31	8.88178e-12
4	139762	64.41	8.88178e-12
4	139987	64.51	8.88178e-12
4	140212	64.61	8.88178e-12
4	140437	64.71	8.88178e-12
4	140662	64.81	8.88178e-12
4	140887	64.91	8.88178e-12
4	141117	65.01	8.88178e-12
4	141342	65.11	8.88178e-12
4	141567	65.21	8.88178e-12
4	141792	65.31	8.88178e-12
4	142017	65.41	8.88178e-12
4	142242	65.51	8.88178e-12
4	142467	65.61	8.88178e-12
4	142692	65.71	8.88178e-12
4	142917	65.81	8.88178e-12
4	143142	65.91	8.88178e-12
4	143372	66.01	8.88178e-12
4	143597	66.11	8.88178e-12
4	143822	66.21	8.88178e-12
4	144047	66.31	8.88178e-12
4	144272	66.41	8.88178e-12
4	144497	66.51	8.88178e-12
4	144722	66.61	8.88178e-12
4	144947	66.71	8.88178e-12
4	145172	66.81	8.88178e-12
4	145397	66.91	8.88178e-12
4	145627	67.01	8.88178e-12
4	145852	67.11	8.88178e-12
4	146077	67.21	8.88178e-12
4	146302	67.31	8.88178e-12
4	146527	67.41	8.88178e-12
4	146752	67.51	8.88178e-12
4	146977	67.61	8.88178e-12
4	147202	67.71	8.88178e-12
4	147427	67.81	8.88178e-12
4	147652	67.91	8.88178e-12
4	147882	68.01	8.88178e-12
4	148107	68.11	8.88178e-12
4	148332	68.21	8.88178e-12
4	148557	68.31	8.88178e-12
4	148782	68.41	8.88178e-12
4	149007	68.51	8.88178e-12
4	149232	68.61	8.88178e-12
4	149457	68.71	8.88178e-12
4	149682	68.81	8.88178e-12
4	149907	68.91	8.88178e-12
4	150137	69.01	8.88178e-12
4	150362	69.11	8.88178e-12
4	150587	69.21	8.88178e-12
4	150812	69.31	8.88178e-12
4	151037	69.41	8.88178e-12
4	151262	69.51	8.88178e-12
4	151487	69.61	8.88178e-12
4	151712	69.71	8.88178e-12
4	151937	69.81	8.88178e-12
4	152162	69.91	8.88178e-12
4	152392	70.01	8.88178e-12
4	152617	70.11	8.88178e-12
4	152842	70.21	8.88178e-12
4	153067	70.31	8.88178e-12
4	153292	70.41	8.88178e-12
4	153517	70.51	8.88178e-12
4	153742	70.61	8.88178e-12
4	153967	70.71	8.88178e-12
4	154192	70.81	8.88178e-12
4	154417	70.91	8.88178e-12
4	154647	71.01	8.88178e-12
4	154872	71.11	8.88178e-12
4	155097	71.21	8.88178e-12
4	155322	71.31	8.88178e-12
4	155547	71.41	8.88178e-12
4	155772	71.51	8.88178e-12
4	155997	71.61	8.88178e-12
4	156222	71.71	8.88178e-12
4	156447	71.81	8.88178e-12
4	156672	71.91	8.88178e-12
4	156902	72.01	8.88178e-12
4	157127	72.11	8.88178e-12
4	157352	72.21	8.88178e-12
4	157577	72.31	8.88178e-12
4	157802	72.41	8.88178e-12
4	158027	72.51	8.88178e-12
4	158252	72.61	8.88178e-12
4	158477	72.71	8.88178e-12
4	158702	72.81	8.88178e-12
4	158927	72.91	8.88178e-12
4	159157	73.01	8.88178e-12
4	159382	73.11	8.88178e-12
4	159607	73.21	8.88178e-12
4	159832	73.31	8.88178e-12
4	160057	73.41	8.88178e-12
4	160282	73.51	8.88178e-12
4	160507	73.61	8.88178e-12
4	160732	73.71	8.88178e-12
4	160957	73.81	8.88178e-12
4	161182	73.91	8.88178e-12
4	161412	74.01	8.88178e-12
4	161637	74.11	8.88178e-12
4	161862	74.21	8.88178e-12
4	162087	74.31	8.88178e-12
4	162312	74.41	8.88178e-12
4	162537	74.51	8.88178e-12
4	162762	74.61	8.88178e-12
4	162987	74.71	8.88178e-12
4	163212	74.81	8.88178e-12
4	163437	74.91	8.88178e-12
4	163667	75.01	8.88178e-12
4	163892	75.11	8.88178e-12
4	164117	75.21	8.88178e-12
4	164342	75.31	8.88178e-12
4	164567	75.41	8.88178e-12
4	164792	75.51	8.88178e-12
4	165017	75.61	8.88178e-12
4	165242	75.71	8.88178e-12
4	165467	75.81	8.88178e-12
4	165692	75.91	8.88178e-12
4	165922	76.01	8.88178e-12
4	166147	76.11	8.88178e-12
4	166372	76.21	8.88178e-12
4	166597	76.31	8.88178e-12
4	166822	76.41	8.88178e-12
4	167047	76.51	8.88178e-12
4	167272	76.61	8.88178e-12
4	167497	76.71	8.88178e-12
4	167722	76.81	8.88178e-12
4	167947	76.91	8.88178e-12
4	168177	77.01	8.88178e-12
4	168402	77.11	8.88178e-12
4	168627	77.21	8.88178e-12
4	168852	77.31	8.88178e-12
4	169077	77.41	8.88178e-12
4	169302	77.51	8.88178e-12
4	169527	77.61	8.88178e-12
4	169752	77.71	8.88178e-12
4	169977	77.81	8.88178e-12
4	170202	77.91	8.88178e-12
4	170432	78.01	8.88178e-12
4	170657	78.11	8.88178e-12
4	170882	78.21	8.88178e-12
4	171107	78.31	8.88178e-12
4	171332	78.41	8.88178e-12
4	171557	78.51	8.88178e-12
4	171782	78.61	8.88178e-12
4	172007	78.71	8.88178e-12
4	172232	78.81	8.88178e-12
4	172457	78.91	8.88178e-12
4	172687	79.01	8.88178e-12
4	172912	79.11	8.88178e-12
4	173137	79.21	8.88178e-12
4	173362	79.31	8.88178e-12
4	173587	79.41	8.88178e-12
4	173812	79.51	8.88178e-12
4	174037	79.61	8.88178e-12
4	174262	79.71	8.88178e-12
4	174487	79.81	8.88178e-12
4	174712	79.91	8.88178e-12
4	174942	80.01	8.88178e-12
4	175167	80.11	8.88178e-12
4	175392	80.21	8.88178e-12
4	175617	80.31	8.88178e-12
4	175842	80.41	8.88178e-12
4	176067	80.51	8.88178e-12
4	176292	80.61	8.88178e-12
4	176517	80.71	8.88178e-12
4	176742	80.81	8.88178e-12
4	176967	80.91	8.88178e-12
4	177197	81.01	8.88178e-12
4	177422	81.11	8.88178e-12
4	177647	81.21	8.88178e-12
4	177872	81.31	8.88178e-12
4	178097	81.41	8.88178e-12
4	178322	81.51	8.88178e-12
4	178547	81.61	8.88178e-12
4	178772	81.71	8.88178e-12
4	178997	81.81	8.88178e-12
4	179222	81.91	8.88178e-12
4	179452	82.01	8.88178e-12
4	179677	82.11	8.88178e-12
4	179902	82.21	8.88178e-12
4	180127	82.31	8.88178e-12
4	180352	82.41	8.88178e-12
4	180577	82.51	8.88178e-12
4	180802	82.61	8.88178e-12
4	181027	82.71	8.88178e-12
4	181252	82.81	8.88178e-12
4	181477	82.91	8.88178e-12
4	181707	83.01	8.88178e-12
4	181932	83.11	8.88178e-12
4	182157	83.21	8.88178e-12
4	182382	83.31	8.88178e-12
4	182607	83.41	8.88178e-12
4	182832	83.51	8.88178e-12
4	183057	83.61	8.88178e-12
4	183282	83.71	8.88178e-12
4	183507	83.81	8.88178e-12
4	183732	83.91	8.88178e-12
4	183962	84.01	8.88178e-12
4	184187	84.11	8.88178e-12
4	184412	84.21	8.88178e-12
4	184637	84.31	8.88178e-12
4	184862	84.41	8.88178e-12
4	185087	84.51	8.88178e-12
4	185312	84.61	8.88178e-12
4	185537	84.71	8.88178e-12
4	185762	84.81	8.88178e-12
4	185987	84.91	8.88178e-12
4	186217	85.01	8.88178e-12
4	186442	85.11	8.88178e-12
4	186667	85.21	8.88178e-12
4	186892	85.31	8.88178e-12
4	187117	85.41	8.88178e-12
4	187342	85.51	8.88178e-12
4	187567	85.61	8.88178e-12
4	187792	85.71	8.88178e-12
4	188017	85.81	8.88178e-12
4	188242	85.91	8.88178e-12
4	188472	86.01	8.88178e-12
4	188697	86.11	8.88178e-12
4	188922	86.21	8.88178e-12
4	189147	86.31	8.88178e-12
4	189372	86.41	8.88178e-12
4	189597	86.51	8.88178e-12
4	189822	86.61	8.88178e-12
4	190047	86.71	8.88178e-12
4	190272	86.81	8.88178e-12
4	190497	86.91	8.88178e-12
4	190727	87.01	8.88178e-12
4	190952	87.11	8.88178e-12
4	191177	87.21	8.88178e-12
4	191402	87.31	8.88178e-12
4	191627	87.41	8.88178e-12
4	191852	87.51	8.88178e-12
4	192077	87.61	8.88178e-12
4	192302	87.71	8.88178e-12
4	192527	87.81	8.88178e-12
4	192752	87.91	8.88178e-12
4	192982	88.01	8.88178e-12
4	193207	88.11	8.88178e-12
4	193432	88.21	8.88178e-12
4	193657	88.31	8.88178e-12
4	193882	88.41	8.88178e-12
4	194107	88.51	8.88178e-12
4	194332	88.61	8.88178e-12
4	194557	88.71	8.88178e-12
4	194782	88.81	8.88178e-12
4	195007	88.91	8.88178e-12
4	195237	89.01	8.88178e-12
4	195462	89.11	8.88178e-12
4	195687	89.21	8.88178e-12
4	195912	89.31	8.88178e-12
4	196137	89.41	8.88178e-12
4	196362	89.51	8.88178e-12
4	196587	89.61	8.88178e-12
4	196812	89.71	8.88178e-12
4	197037	89.81	8.88178e-12
4	197262	89.91	8.88178e-12
4	197492	90.01	8.88178e-12
4	197717	90.11	8.88178e-12
4	197942	90.21	8.88178e-12
4	198167	90.31	8.88178e-12
4	198392	90.41	8.88178e-12
4	198617	90.51	8.88178e-12
4	198842	90.61	8.88178e-12
4	199067	90.71	8.88178e-12
4	199292	90.81	8.88178e-12
4	199517	90.91	8.88178e-12
4	199747	91.01	8.88178e-12
4	199972	91.11	8.88178e-12
4	200197	91.21	8.88178e-12
4	200422	91.31	8.88178e-12
4	200647	91.41	8.88178e-12
4	200872	91.51	8.88178e-12
4	201097	91.61	8.88178e-12
4	201322	91.71	8.88178e-12
4	201547	91.81	8.88178e-12
4	201772	91.91	8.88178e-12
4	202002	92.01	8.88178e-12
4	202227	92.11	8.88178e-12
4	202452	92.21	8.88178e-12
4	202677	92.31	8.88178e-12
4	202902	92.41	8.88178e-12
4	203127	92.51	8.88178e-12
4	203352	92.61	8.88178e-12
4	203577	92.71	8.88178e-12
4	203802	92.81	8.88178e-12
4	204027	92.91	8.88178e-12
4	204257	93.01	8.88178e-12
4	204482	93.11	8.88178e-12
4	204707	93.21	8.88178e-12
4	204932	93.31	8.88178e-12
4	205157	93.41	8.88178e-12
4	205382	93.51	8.88178e-12
4	205607	93.61	8.88178e-12
4	205832	93.71	8.88178e-12
4	206057	93.81	8.88178e-12
4	206282	93.91	8.88178e-12
4	206512	94.01	8.88178e-12
4	206737	94.11	8.88178e-12
4	206962	94.21	8.88178e-12
4	207187	94.31	8.88178e-12
4	207412	94.41	8.88178e-12
4	207637	94.51	8.88178e-12
4	207862	94.61	8.88178e-12
4	208087	94.71	8.88178e-12
4	208312	94.81	8.88178e-12
4	208537	94.91	8.88178e-12
4	208767	95.01	8.88178e-12
4	208992	95.11	8.88178e-12
4	209217	95.21	8.88178e-12
4	209442	95.31	8.88178e-12
4	209667	95.41	8.88178e-12
4	209892	95.51	8.88178e-12
4	210117	95.61	8.88178e-12
4	210342	95.71	8.88178e-12
4	210567	95.81	8.88178e-12
4	210792	95.91	8.88178e-12
4	211022	96.01	8.88178e-12
4	211247	96.11	8.88178e-12
4	211472	96.21	8.88178e-12
4	211697	96.31	8.88178e-12
4	211922	96.41	8.88178e-12
4	212147	96.51	8.88178e-12
4	212372	96.61	8.88178e-12
4	212597	96.71	8.88178e-12
4	212822	96.81	8.88178e-12
4	213047	96.91	8.88178e-12
4	213277	97.01	8.88178e-12
4	213502	97.11	8.88178e-12
4	213727	97.21	8.88178e-12
4	213952	97.31	8.88178e-12
4	214177	97.41	8.88178e-12
4	214402	97.51	8.88178e-12
4	214627	97.61	8.88178e-12
4	214852	97.71	8.88178e-12
4	215077	97.81	8.88178e-12
4	215302	97.91	8.88178e-12
4	215532	98.01	8.88178e-12
4	215757	98.11	8.88178e-12
4	215982	98.21	8.88178e-12
4	216207	98.31	8.88178e-12
4	216432	98.41	8.88178e-12
4	216657	98.51	8.88178e-12
4	216882	98.61	8.88178e-12
4	217107	98.71	8.88178e-12
4	217332	98.81	8.88178e-12
4	217557	98.91	8.88178e-12
4	217787	99.01	8.88178e-12
4	218012	99.11	8.88178e-12
4	218237	99.21	8.88178e-12
4	218462	99.31	8.88178e-12
4	218687	99.41	8.88178e-12
4	218912	99.51	8.88178e-12
4	219137	99.61	8.88178e-12
4	219362	99.71	8.88178e-12
4	219587	99.81	8.88178e-12
4	219812	99.91	8.88178e-12
4	220042	100.01	8.88178e-12
4	220267	100.11	8.88178e-12
4	220492	100.21	8.88178e-12
4	220717	100.31	8.88178e-12
4	220942	100.41	8.88178e-12
4	221167	100.51	8.88178e-12
4	221392	100.61	8.88178e-12
4	221617	100.71	8.88178e-12
4	221842	100.81	8.88178e-12
4	222067	100.91	8.88178e-12
4	222297	101.01	8.88178e-12
4	222522	101.11	8.88178e-12
4	222747	101.21	8.88178e-12
4	222972	101.31	8.88178e-12
4	223197	101.41	8.88178e-12
4	223422	101.51	8.88178e-12
4	223647	101.61	8.88178e-12
4	223872	101.71	8.88178e-12
4	224097	101.81	8.88178e-12
4	224322	101.91	8.88178e-12
4	224552	102.01	8.88178e-12
4	224777	102.11	8.88178e-12
4	225002	102.21	8.88178e-12
4	225227	102.31	8.88178e-12
4	225452	102.41	8.88178e-12
4	225677	102.51	8.88178e-12
4	225902	102.61	8.88178e-12
4	226127	102.71	8.88178e-12
4	226352	102.81	8.88178e-12
4	226577	102.91	8.88178e-12
4	226807	103.01	8.88178e-12
4	227032	103.11	8.88178e-12
4	227257	103.21	8.88178e-12
4	227482	103.31	8.88178e-12
4	227707	103.41	8.88178e-12
4	227932	103.51	8.88178e-12
4	228157	103.61	8.88178e-12
4	228382	103.71	8.88178e-12
4	228607	103.81	8.88178e-12
4	228832	103.91	8.88178e-12
4	229062	104.01	8.88178e-12
4	229287	104.11	8.88178e-12
4	229512	104.21	8.88178e-12
4	229737	104.31	8.88178e-12
4	229962	104.41	8.88178e-12
4	230187	104.51	8.88178e-12
4	230412	104.61	8.88178e-12
4	230637	104.71	8.88178e-12
4	230862	104.81	8.88178e-12
4	231087	104.91	8.88178e-12
4	231317	105.01	8.88178e-12
4	231542	105.11	8.88178e-12
4	231767	105.21	8.88178e-12
4	231992	105.31	8.88178e-12
4	232217	105.41	8.88178e-12
4	232442	105.51	8.88178e-12
4	232667	105.61	8.88178e-12
4	232892	105.71	8.88178e-12
4	233117	105.81	8.88178e-12
4	233342	105.91	8.88178e-12
4	233572	106.01	8.88178e-12
4	233797	106.11	8.88178e-12
4	234022	106.21	8.88178e-12
4	234247	106.31	8.88178e-12
4	234472	106.41	8.88178e-12
4	234697	106.51	8.88178e-12
4	234922	106.61	8.88178e-12
4	235147	106.71	8.88178e-12
4	235372	106.81	8.88178e-12
4	235597	106.91	8.88178e-12
4	235827	107.01	8.88178e-12
4	236052	107.11	8.88178e-12
4	236277	107.21	8.88178e-12
4	236502	107.31	8.88178e-12
4	236727	107.41	8.88178e-12
4	236952	107.51	8.88178e-12
4	237177	107.61	8.88178e-12
4	237402	107.71	8.88178e-12
4	237627	107.81	8.88178e-12
4	237852	107.91	8.88178e-12
4	238082	108.01	8.88178e-12
4	238307	108.11	8.88178e-12
4	238532	108.21	8.88178e-12
4	238757	108.31	8.88178e-12
4	238982	108.41	8.88178e-12
4	239207	108.51	8.88178e-12
4	239432	108.61	8.88178e-12
4	239657	108.71	8.88178e-12
4	239882	108.81	8.88178e-12
4	240107	108.91	8.88178e-12
4	240337	109.01	8.88178e-12
4	240562	109.11	8.88178e-12
4	240787	109.21	8.88178e-12
4	241012	109.31	8.88178e-12
4	241237	109.41	8.88178e-12
4	241462	109.51	8.88178e-12
4	241687	109.61	8.88178e-12
4	241912	109.71	8.88178e-12
4	242137	109.81	8.88178e-12
4	242362	109.91	8.88178e-12
4	242592	110.01	8.88178e-12
4	242817	110.11	8.88178e-12
4	243042	110.21	8.88178e-12
4	243267	110.31	8.88178e-12
4	243492	110.41	8.88178e-12
4	243717	110.51	8.88178e-12
4	243942	110.61	8.88178e-12
4	244167	110.71	8.88178e-12
4	244392	110.81	8.88178e-12
4	244617	110.91	8.88178e-12
4	244847	111.01	8.88178e-12
4	245072	111.11	8.88178e-12
4	245297	111.21	8.88178e-12
4	245522	111.31	8.88178e-12
4	245747	111.41	8.88178e-12
4	245972	111.51	8.88178e-12
4	246197	111.61	8.88178e-12
4	246422	111.71	8.88178e-12
4	246647	111.81	8.88178e-12
4	246872	111.91	8.88178e-12
4	247102	112.01	8.88178e-12
4	247327	112.11	8.88178e-12
4	247552	112.21	8.88178e-12
4	247777	112.31	8.88178e-12
4	248002	112.41	8.88178e-12
4	248227	112.51	8.88178e-12
4	248452	112.61	8.88178e-12
4	248677	112.71	8.88178e-12
4	248902	112.81	8.88178e-12
4	249127	112.91	8.88178e-12
4	249357	113.01	8.88178e-12
4	249582	113.11	8.88178e-12
4	249807	113.21	8.88178e-12
4	250032	113.31	8.88178e-12
4	250257	113.41	8.88178e-12
4	250482	113.51	8.88178e-12
4	250707	113.61	8.88178e-12
4	250932	113.71	8.88178e-12
4	251157	113.81	8.88178e-12
4	251382	113.91	8.88178e-12
4	251612	114.01	8.88178e-12
4	251837	114.11	8.88178e-12
4	252062	114.21	8.88178e-12
4	252287	114.31	8.88178e-12
4	252512	114.41	8.88178e-12
4	252737	114.51	8.88178e-12
4	252962	114.61	8.88178e-12
4	253187	114.71	8.88178e-12
4	253412	114.81	8.88178e-12
4	253637	114.91	8.88178e-12
4	253867	115.01	8.88178e-12
4	254092	115.11	8.88178e-12
4	254317	115.21	8.88178e-12
4	254542	115.31	8.88178e-12
4	254767	115.41	8.88178e-12
4	254992	115.51	8.88178e-12
4	255217	115.61	8.88178e-12
4	255442	115.71	8.88178e-12
4	255667	115.81	8.88178e-12
4	255892	115.91	8.88178e-12
4	256122	116.01	8.88178e-12
4	256347	116.11	8.88178e-12
4	256572	116.21	8.88178e-12
4	256797	116.31	8.88178e-12
4	257022	116.41	8.88178e-12
4	257247	116.51	8.88178e-12
4	257472	116.61	8.88178e-12
4	257697	116.71	8.88178e-12
4	257922	116.81	8.88178e-12
4	258147	116.91	8.88178e-12
4	258377	117.01	8.88178e-12
4	258602	117.11	8.88178e-12
4	258827	117.21	8.88178e-12
4	259052	117.31	8.88178e-12
4	259277	117.41	8.88178e-12
4	259502	117.51	8.88178e-12
4	259727	117.61	8.88178e-12
4	259952	117.71	8.88178e-12
4	260177	117.81	8.88178e-12
4	260402	117.91	8.88178e-12
4	260632	118.01	8.88178e-12
4	260857	118.11	8.88178e-12
4	261082	118.21	8.88178e-12
4	261307	118.31	8.88178e-12
4	261532	118.41	8.88178e-12
4	261757	118.51	8.88178e-12
4	261982	118.61	8.88178e-12
4	262207	118.71	8.88178e-12
4	262432	118.81	8.88178e-12
4	262657	118.91	8.88178e-12
4	262887	119.01	8.88178e-12
4	263112	119.11	8.88178e-12
4	263337	119.21	8.88178e-12
4	263562	119.31	8.88178e-12
4	263787	119.41	8.88178e-12
4	264012	119.51	8.88178e-12
4	264237	119.61	8.88178e-12
4	264462	119.71	8.88178e-12
4	264687	119.81	8.88178e-12
4	264912	119.91	8.88178e-12
3	113	1.11	-0.000358191
3	263	1.21	-0.000681704
3	413	1.31	-0.00093487
3	563	1.41	-0.00112579
3	713	1.51	-0.00126221
3	863	1.61	-0.00135149
3	1013	1.71	-0.00140049
3	1163	1.81	-0.00141557
3	1313	1.91	-0.00140255
3	1467	2.01	-0.00136671
3	1617	2.11	-0.0013128
3	1767	2.21	-0.00124502
3	1917	2.31	-0.0011671
3	2067	2.41	-0.00108223
3	2217	2.51	-0.000993208
3	2367	2.61	-0.000902362
3	2517	2.71	-0.000811651
3	2667	2.81	-0.000722679
3	2817	2.91	-0.000636729
3	2971	3.01	-0.0005548
3	3121	3.11	-0.000477639
3	3271	3.21	-0.000405773
3	3421	3.31	-0.00033954
3	3571	3.41	-0.000279116
3	3721	3.51	-0.000224541
3	3871	3.61	-0.000175743
3	4021	3.71	-0.00013256
3	4171	3.81	-9.47571e-05
3	4321	3.91	-6.2046e-05
3	4475	4.01	-3.40986e-05
3	4625	4.11	-1.05605e-05
3	4775	4.21	8.93844e-06
3	4925	4.31	2.4774e-05
3	5075	4.41	3.73203e-05
3	5225	4.51	4.69433e-05
3	5375	4.61	5.39956e-05
3	5525	4.71	5.88124e-05
3	5675	4.81	6.1709e-05
3	5825	4.91	6.29785e-05
3	5979	5.01	6.28903e-05
3	6129	5.11	6.169e-05
3	6279	5.21	5.95988e-05
3	6429	5.31	5.68144e-05
3	6579	5.41	5.35112e-05
3	6729	5.51	4.98416e-05
3	6879	5.61	4.59373e-05
3	7029	5.71	4.19105e-05
3	7179	5.81	3.78555e-05
3	7329	5.91	3.38499e-05
3	7484	6.01	2.99569e-05
3	7666	6.11	2.62259e-05
3	7891	6.21	2.26948e-05
3	8116	6.31	1.93911e-05
3	8341	6.41	1.6333e-05
3	8566	6.51	1.35314e-05
3	8791	6.61	1.09904e-05
3	9016	6.71	8.70882e-06
3	9241	6.81	6.6809e-06
3	9466	6.91	4.89747e-06
3	9696	7.01	3.3466e-06
3	9921	7.11	2.01432e-06
3	10146	7.21	8.85256e-07
3	10371	7.31	-5.68459e-08
3	10596	7.41	-8.28678e-07
3	10821	7.51	-1.44699e-06
3	11046	7.61	-1.92826e-06
3	11271	7.71	-2.28849e-06
3	11496	7.81	-2.54296e-06
3	11721	7.91	-2.7061e-06
3	11951	8.01	-2.79139e-06
3	12176	8.11	-2.8113e-06
3	12401	8.21	-2.77721e-06
3	12626	8.31	-2.69943e-06
3	12851	8.41	-2.58721e-06
3	13076	8.51	-2.44874e-06
3	13301	8.61	-2.29123e-06
3	13526	8.71	-2.12092e-06
3	13751	8.81	-1.94317e-06
3	13976	8.91	-1.7625e-06
3	14206	9.01	-1.58267e-06
3	14431	9.11	-1.40677e-06
3	14656	9.21	-1.23723e-06
3	14881	9.31	-1.07596e-06
3	15106	9.41	-9.24364e-07
3	15331	9.51	-7.83424e-07
3	15556	9.61	-6.53753e-07
3	15781	9.71	-5.35652e-07
3	16006	9.81	-4.2916e-07
3	16231	9.91	-3.34103e-07
3	16461	10.01	-2.5013e-07
3	16686	10.11	-1.76757e-07
3	16911	10.21	-1.13395e-07
3	17136	10.31	-5.93825e-08
3	17361	10.41	-1.40084e-08
3	17586	10.51	2.34657e-08
3	17811	10.61	5.3787e-08
3	18036	10.71	7.76954e-08
3	18261	10.81	9.59155e-08
3	18486	10.91	1.09142e-07
3	18716	11.01	1.18035e-07
3	18941	11.11	1.23212e-07
3	19166	11.21	1.2525e-07
3	19391	11.31	1.24675e-07
3	19616	11.41	1.21968e-07
3	19841	11.51	1.17559e-07
3	20066	11.61	1.11834e-07
3	20291	11.71	1.05132e-07
3	20516	11.81	9.77476e-08
3	20741	11.91	8.99373e-08
3	20971	12.01	8.19171e-08
3	21196	12.11	7.38677e-08
3	21421	12.21	6.59401e-08
3	21646	12.31	5.82538e-08
3	21871	12.41	5.09036e-08
3	22096	12.51	4.39606e-08
3	22321	12.61	3.74765e-08
3	22546	12.71	3.14852e-08
3	22771	12.81	2.60055e-08
3	22996	12.91	2.10438e-08
3	23226	13.01	1.65958e-08
3	23451	13.11	1.26498e-08
3	23676	13.21	9.18554e-09
3	23901	13.31	6.17888e-09
3	24126	13.41	3.60174e-09
3	24351	13.51	1.42322e-09
3	24576	13.61	-3.90088e-10
3	24801	13.71	-1.8705e-09
3	25026	13.81	-3.05107e-09
3	25251	13.91	-3.96518e-09
3	25481	14.01	-4.64375e-09
3	25706	14.11	-5.11768e-09
3	25931	14.21	-5.41434e-09
3	26156	14.31	-5.56071e-09
3	26381	14.41	-5.58096e-09
3	26606	14.51	-5.49747e-09
3	26831	14.61	-5.33085e-09
3	27056	14.71	-5.09743e-09
3	27281	14.81	-4.81464e-09
3	27506	14.91	-4.49667e-09
3	27736	15.01	-4.15525e-09
3	27961	15.11	-3.80034e-09
3	28186	15.21	-3.44151e-09
3	28411	15.31	-3.08518e-09
3	28636	15.41	-2.73772e-09
3	28861	15.51	-2.40306e-09
3	29086	15.61	-2.08544e-09
3	29311	15.71	-1.78773e-09
3	29536	15.81	-1.51132e-09
3	29761	15.91	-1.25766e-09
3	29992	16.01	-1.02673e-09
3	30406	16.11	-8.18901e-10
3	30631	16.21	-6.33804e-10
3	30856	16.31	-4.70735e-10
3	31081	16.41	-3.28271e-10
3	31306	16.51	-2.05702e-10
3	31531	16.61	-1.00897e-10
3	31756	16.71	-1.35003e-11
3	31981	16.81	5.82645e-11
3	32206	16.91	1.16174e-10
3	32436	17.01	1.61648e-10
3	32661	17.11	1.95755e-10
3	32886	17.21	2.20624e-10
3	33111	17.31	2.36966e-10
3	33336	17.41	2.45848e-10
3	33561	17.51	2.4869e-10
3	33786	17.61	2.46914e-10
3	34011	17.71	2.40874e-10
3	34236	17.81	2.31282e-10
3	34461	17.91	2.19913e-10
3	34691	18.01	2.05702e-10
3	34916	18.11	1.91491e-10
3	35141	18.21	1.7657e-10
3	35366	18.31	1.59872e-10
3	35591	18.41	1.44595e-10
3	35816	18.51	1.30385e-10
3	36041	18.61	1.16174e-10
3	36266	18.71	1.01963e-10
3	36491	18.81	8.7752e-11
3	36716	18.91	7.35412e-11
3	36946	19.01	6.21725e-11
3	37171	19.11	5.15143e-11
3	37396	19.21	4.08562e-11
3	37621	19.31	3.16192e-11
3	37846	19.41	2.45137e-11
3	38071	19.51	1.74083e-11
3	38296	19.61	1.03029e-11
3	38521	19.71	6.03961e-12
3	38746	19.81	2.4869e-12
3	38971	19.91	-1.06581e-12
3	39201	20.01	-4.61853e-12
3	39426	20.11	-8.17124e-12
3	39651	20.21	-8.88178e-12
3	39876	20.31	-8.88178e-12
3	40101	20.41	-8.88178e-12
3	40326	20.51	-8.88178e-12
3	40551	20.61	-8.88178e-12
3	40776	20.71	-8.88178e-12
3	41001	20.81	-8.88178e-12
3	41226	20.91	-8.88178e-12
3	41456	21.01	-8.88178e-12
3	41681	21.11	-8.88178e-12
3	41906	21.21	-8.88178e-12
3	42131	21.31	-8.88178e-12
3	42356	21.41	-8.88178e-12
3	42581	21.51	-8.88178e-12
3	42806	21.61	-8.88178e-12
3	43031	21.71	-8.88178e-12
3	43256	21.81	-8.88178e-12
3	43481	21.91	-8.88178e-12
3	43711	22.01	-8.88178e-12
3	43936	22.11	-8.88178e-12
3	44161	22.21	-8.17124e-12
3	44386	22.31	-7.4607e-12
3	44611	22.41	-6.75016e-12
3	44836	22.51	-6.03961e-12
3	45061	22.61	-5.68434e-12
3	45286	22.71	-4.9738e-12
3	45511	22.81	-4.61853e-12
3	45736	22.91	-4.26326e-12
3	45966	23.01	-3.55271e-12
3	46191	23.11	-3.19744e-12
3	46416	23.21	-3.19744e-12
3	46641	23.31	-2.84217e-12
3	46866	23.41	-2.4869e-12
3	47091	23.51	-2.13163e-12
3	47316	23.61	-2.13163e-12
3	47541	23.71	-1.77636e-12
3	47766	23.81	-1.77636e-12
3	47991	23.91	-1.42109e-12
3	48221	24.01	-1.42109e-12
3	48446	24.11	-1.06581e-12
3	48671	24.21	-1.06581e-12
3	48896	24.31	-1.06581e-12
3	49121	24.41	-1.06581e-12
3	49346	24.51	-7.10543e-13
3	49571	24.61	-7.10543e-13
3	49796	24.71	-7.10543e-13
3	50021	24.81	-7.10543e-13
3	50246	24.91	-7.10543e-13
3	50476	25.01	-3.55271e-13
3	50701	25.11	-3.55271e-13
3	50926	25.21	-3.55271e-13
3	51151	25.31	-3.55271e-13
3	51376	25.41	-3.55271e-13
3	51601	25.51	-3.55271e-13
3	51826	25.61	-3.55271e-13
3	52051	25.71	-3.55271e-13
3	52276	25.81	-3.55271e-13
3	52501	25.91	-3.55271e-13
3	52731	26.01	0
3	52956	26.11	0
3	53181	26.21	0
3	53406	26.31	0
3	53631	26.41	0
3	53856	26.51	0
3	54081	26.61	0
3	54306	26.71	0
3	54531	26.81	0
3	54756	26.91	0
3	54986	27.01	0
3	55211	27.11	0
3	55436	27.21	0
3	55661	27.31	0
3	55886	27.41	0
3	56111	27.51	0
3	56336	27.61	0
3	56561	27.71	0
3	56786	27.81	0
3	57011	27.91	0
3	57241	28.01	0
3	57466	28.11	0
3	57691	28.21	0
3	57916	28.31	0
3	58141	28.41	0
3	58366	28.51	0
3	58591	28.61	0
3	58816	28.71	0
3	59041	28.81	0
3	59266	28.91	0
3	59496	29.01	0
3	59721	29.11	0
3	59946	29.21	0
3	60171	29.31	0
3	60396	29.41	0
3	60621	29.51	0
3	60846	29.61	0
3	61071	29.71	0
3	61296	29.81	0
3	61521	29.91	0
3	61751	30.01	0
3	61976	30.11	0
3	62201	30.21	0
3	62426	30.31	0
3	62651	30.41	0
3	62876	30.51	0
3	63101	30.61	0
3	63326	30.71	0
3	63551	30.81	0
3	63776	30.91	0
3	64006	31.01	0
3	64231	31.11	0
3	64456	31.21	0
3	64681	31.31	0
3	64906	31.41	0
3	65131	31.51	0
3	65356	31.61	0
3	65581	31.71	0
3	65806	31.81	0
3	66031	31.91	0
3	66261	32.01	0
3	66486	32.11	0
3	66711	32.21	0
3	66936	32.31	0
3	67161	32.41	0
3	67386	32.51	0
3	67611	32.61	0
3	67836	32.71	0
3	68061	32.81	0
3	68286	32.91	0
3	68516	33.01	0
3	68741	33.11	0
3	68966	33.21	0
3	69191	33.31	0
3	69416	33.41	0
3	69641	33.51	0
3	69866	33.61	0
3	70091	33.71	0
3	70316	33.81	0
3	70541	33.91	0
3	70771	34.01	0
3	70996	34.11	0
3	71221	34.21	0
3	71446	34.31	0
3	71671	34.41	0
3	71896	34.51	0
3	72121	34.61	0
3	72346	34.71	0
3	72571	34.81	0
3	72796	34.91	0
3	73026	35.01	0
3	73251	35.11	0
3	73476	35.21	0
3	73701	35.31	0
3	73926	35.41	0
3	74151	35.51	0
3	74376	35.61	0
3	74601	35.71	0
3	74826	35.81	0
3	75051	35.91	0
3	75281	36.01	0
3	75506	36.11	0
3	75731	36.21	0
3	75956	36.31	0
3	76181	36.41	0
3	76406	36.51	0
3	76631	36.61	0
3	76856	36.71	0
3	77081	36.81	0
3	77306	36.91	0
3	77536	37.01	0
3	77761	37.11	0
3	77986	37.21	0
3	78211	37.31	0
3	78436	37.41	0
3	78661	37.51	0
3	78886	37.61	0
3	79111	37.71	0
3	79336	37.81	0
3	79561	37.91	0
3	79791	38.01	0
3	80016	38.11	0
3	80241	38.21	0
3	80466	38.31	0
3	80691	38.41	0
3	80916	38.51	0
3	81141	38.61	0
3	81366	38.71	0
3	81591	38.81	0
3	81816	38.91	0
3	82046	39.01	0
3	82271	39.11	0
3	82496	39.21	0
3	82721	39.31	0
3	82946	39.41	0
3	83171	39.51	0
3	83396	39.61	0
3	83621	39.71	0
3	83846	39.81	0
3	84071	39.91	0
3	84301	40.01	0
3	84526	40.11	0
3	84751	40.21	0
3	84976	40.31	0
3	85201	40.41	0
3	85426	40.51	0
3	85651	40.61	0
3	85876	40.71	0
3	86101	40.81	0
3	86326	40.91	0
3	86556	41.01	0
3	86781	41.11	0
3	87006	41.21	0
3	87231	41.31	0
3	87456	41.41	0
3	87681	41.51	0
3	87906	41.61	0
3	88131	41.71	0
3	88356	41.81	0
3	88581	41.91	0
3	88811	42.01	0
3	89036	42.11	0
3	89261	42.21	0
3	89486	42.31	0
3	89711	42.41	0
3	89936	42.51	0
3	90161	42.61	0
3	90386	42.71	0
3	90611	42.81	0
3	90836	42.91	0
3	91066	43.01	0
3	91291	43.11	0
3	91516	43.21	0
3	91741	43.31	0
3	91966	43.41	0
3	92191	43.51	0
3	92416	43.61	0
3	92641	43.71	0
3	93307	43.81	0
3	93532	43.91	0
3	93762	44.01	0
3	93987	44.11	0
3	94212	44.21	0
3	94437	44.31	0
3	94662	44.41	0
3	94887	44.51	0
3	95112	44.61	0
3	95337	44.71	0
3	95562	44.81	0
3	95787	44.91	0
3	96017	45.01	0
3	96242	45.11	0
3	96467	45.21	0
3	96692	45.31	0
3	96917	45.41	0
3	97142	45.51	0
3	97367	45.61	0
3	97592	45.71	0
3	97817	45.81	0
3	98042	45.91	0
3	98272	46.01	0
3	98497	46.11	0
3	98722	46.21	0
3	98947	46.31	0
3	99172	46.41	0
3	99397	46.51	0
3	99622	46.61	0
3	99847	46.71	0
3	100072	46.81	0
3	100297	46.91	0
3	100527	47.01	0
3	100752	47.11	0
3	100977	47.21	0
3	101202	47.31	0
3	101427	47.41	0
3	101652	47.51	0
3	101877	47.61	0
3	102102	47.71	0
3	102327	47.81	0
3	102552	47.91	0
3	102782	48.01	0
3	103007	48.11	0
3	103232	48.21	0
3	103457	48.31	0
3	103682	48.41	0
3	103907	48.51	0
3	104132	48.61	0
3	104357	48.71	0
3	104582	48.81	0
3	104807	48.91	0
3	105037	49.01	0
3	105262	49.11	0
3	105487	49.21	0
3	105712	49.31	0
3	105937	49.41	0
3	106162	49.51	0
3	106387	49.61	0
3	106612	49.71	0
3	106837	49.81	0
3	107062	49.91	0
3	107292	50.01	0
3	107517	50.11	0
3	107742	50.21	0
3	107967	50.31	0
3	108192	50.41	0
3	108417	50.51	0
3	108642	50.61	0
3	108867	50.71	0
3	109092	50.81	0
3	109317	50.91	0
3	109547	51.01	0
3	109772	51.11	0
3	109997	51.21	0
3	110222	51.31	0
3	110447	51.41	0
3	110672	51.51	0
3	110897	51.61	0
3	111122	51.71	0
3	111347	51.81	0
3	111572	51.91	0
3	111802	52.01	0
3	112027	52.11	0
3	112252	52.21	0
3	112477	52.31	0
3	112702	52.41	0
3	112927	52.51	0
3	113152	52.61	0
3	113377	52.71	0
3	113602	52.81	0
3	113827	52.91	0
3	114057	53.01	0
3	114282	53.11	0
3	114507	53.21	0
3	114732	53.31	0
3	114957	53.41	0
3	115182	53.51	0
3	115407	53.61	0
3	115632	53.71	0
3	115857	53.81	0
3	116082	53.91	0
3	116312	54.01	0
3	116537	54.11	0
3	116762	54.21	0
3	116987	54.31	0
3	117212	54.41	0
3	117437	54.51	0
3	117662	54.61	0
3	117887	54.71	0
3	118112	54.81	0
3	118337	54.91	0
3	118567	55.01	0
3	118792	55.11	0
3	119017	55.21	0
3	119242	55.31	0
3	119467	55.41	0
3	119692	55.51	0
3	119917	55.61	0
3	120142	55.71	0
3	120367	55.81	0
3	120592	55.91	0
3	120822	56.01	0
3	121047	56.11	0
3	121272	56.21	0
3	121497	56.31	0
3	121722	56.41	0
3	121947	56.51	0
3	122172	56.61	0
3	122397	56.71	0
3	122622	56.81	0
3	122847	56.91	0
3	123077	57.01	0
3	123302	57.11	0
3	123527	57.21	0
3	123752	57.31	0
3	123977	57.41	0
3	124202	57.51	0
3	124427	57.61	0
3	124652	57.71	0
3	124877	57.81	0
3	125102	57.91	0
3	125332	58.01	0
3	125557	58.11	0
3	125782	58.21	0
3	126007	58.31	0
3	126232	58.41	0
3	126457	58.51	0
3	126682	58.61	0
3	126907	58.71	0
3	127132	58.81	0
3	127357	58.91	0
3	127587	59.01	0
3	127812	59.11	0
3	128037	59.21	0
3	128262	59.31	0
3	128487	59.41	0
3	128712	59.51	0
3	128937	59.61	0
3	129162	59.71	0
3	129387	59.81	0
3	129612	59.91	0
3	129842	60.01	0
3	130067	60.11	0
3	130292	60.21	0
3	130517	60.31	0
3	130742	60.41	0
3	130967	60.51	0
3	131192	60.61	0
3	131417	60.71	0
3	131642	60.81	0
3	131867	60.91	0
3	132097	61.01	0
3	132322	61.11	0
3	132547	61.21	0
3	132772	61.31	0
3	132997	61.41	0
3	133222	61.51	0
3	133447	61.61	0
3	133672	61.71	0
3	133897	61.81	0
3	134122	61.91	0
3	134352	62.01	0
3	134577	62.11	0
3	134802	62.21	0
3	135027	62.31	0
3	135252	62.41	0
3	135477	62.51	0
3	135702	62.61	0
3	135927	62.71	0
3	136152	62.81	0
3	136377	62.91	0
3	136607	63.01	0
3	136832	63.11	0
3	137057	63.21	0
3	137282	63.31	0
3	137507	63.41	0
3	137732	63.51	0
3	137957	63.61	0
3	138182	63.71	0
3	138407	63.81	0
3	138632	63.91	0
3	138862	64.01	0
3	139087	64.11	0
3	139312	64.21	0
3	139537	64.31	0
3	139762	64.41	0
3	139987	64.51	0
3	140212	64.61	0
3	140437	64.71	0
3	140662	64.81	0
3	140887	64.91	0
3	141117	65.01	0
3	141342	65.11	0
3	141567	65.21	0
3	141792	65.31	0
3	142017	65.41	0
3	142242	65.51	0
3	142467	65.61	0
3	142692	65.71	0
3	142917	65.81	0
3	143142	65.91	0
3	143372	66.01	0
3	143597	66.11	0
3	143822	66.21	0
3	144047	66.31	0
3	144272	66.41	0
3	144497	66.51	0
3	144722	66.61	0
3	144947	66.71	0
3	145172	66.81	0
3	145397	66.91	0
3	145627	67.01	0
3	145852	67.11	0
3	146077	67.21	0
3	146302	67.31	0
3	146527	67.41	0
3	146752	67.51	0
3	146977	67.61	0
3	147202	67.71	0
3	147427	67.81	0
3	147652	67.91	0
3	147882	68.01	0
3	148107	68.11	0
3	148332	68.21	0
3	148557	68.31	0
3	148782	68.41	0
3	149007	68.51	0
3	149232	68.61	0
3	149457	68.71	0
3	149682	68.81	0
3	149907	68.91	0
3	150137	69.01	0
3	150362	69.11	0
3	150587	69.21	0
3	150812	69.31	0
3	151037	69.41	0
3	151262	69.51	0
3	151487	69.61	0
3	151712	69.71	0
3	151937	69.81	0
3	152162	69.91	0
3	152392	70.01	0
3	152617	70.11	0
3	152842	70.21	0
3	153067	70.31	0
3	153292	70.41	0
3	153517	70.51	0
3	153742	70.61	0
3	153967	70.71	0
3	154192	70.81	0
3	154417	70.91	0
3	154647	71.01	0
3	154872	71.11	0
3	155097	71.21	0
3	155322	71.31	0
3	155547	71.41	0
3	155772	71.51	0
3	155997	71.61	0
3	156222	71.71	0
3	156447	71.81	0
3	156672	71.91	0
3	156902	72.01	0
3	157127	72.11	0
3	157352	72.21	0
3	157577	72.31	0
3	157802	72.41	0
3	158027	72.51	0
3	158252	72.61	0
3	158477	72.71	0
3	158702	72.81	0
3	158927	72.91	0
3	159157	73.01	0
3	159382	73.11	0
3	159607	73.21	0
3	159832	73.31	0
3	160057	73.41	0
3	160282	73.51	0
3	160507	73.61	0
3	160732	73.71	0
3	160957	73.81	0
3	161182	73.91	0
3	161412	74.01	0
3	161637	74.11	0
3	161862	74.21	0
3	162087	74.31	0
3	162312	74.41	0
3	162537	74.51	0
3	162762	74.61	0
3	162987	74.71	0
3	163212	74.81	0
3	163437	74.91	0
3	163667	75.01	0
3	163892	75.11	0
3	164117	75.21	0
3	164342	75.31	0
3	164567	75.41	0
3	164792	75.51	0
3	165017	75.61	0
3	165242	75.71	0
3	165467	75.81	0
3	165692	75.91	0
3	165922	76.01	0
3	166147	76.11	0
3	166372	76.21	0
3	166597	76.31	0
3	166822	76.41	0
3	167047	76.51	0
3	167272	76.61	0
3	167497	76.71	0
3	167722	76.81	0
3	167947	76.91	0
3	168177	77.01	0
3	168402	77.11	0
3	168627	77.21	0
3	168852	77.31	0
3	169077	77.41	0
3	169302	77.51	0
3	169527	77.61	0
3	169752	77.71	0
3	169977	77.81	0
3	170202	77.91	0
3	170432	78.01	0
3	170657	78.11	0
3	170882	78.21	0
3	171107	78.31	0
3	171332	78.41	0
3	171557	78.51	0
3	171782	78.61	0
3	172007	78.71	0
3	172232	78.81	0
3	172457	78.91	0
3	172687	79.01	0
3	172912	79.11	0
3	173137	79.21	0
3	173362	79.31	0
3	173587	79.41	0
3	173812	79.51	0
3	174037	79.61	0
3	174262	79.71	0
3	174487	79.81	0
3	174712	79.91	0
3	174942	80.01	0
3	175167	80.11	0
3	175392	80.21	0
3	175617	80.31	0
3	175842	80.41	0
3	176067	80.51	0
3	176292	80.61	0
3	176517	80.71	0
3	176742	80.81	0
3	176967	80.91	0
3	177197	81.01	0
3	177422	81.11	0
3	177647	81.21	0
3	177872	81.31	0
3	178097	81.41	0
3	178322	81.51	0
3	178547	81.61	0
3	178772	81.71	0
3	178997	81.81	0
3	179222	81.91	0
3	179452	82.01	0
3	179677	82.11	0
3	179902	82.21	0
3	180127	82.31	0
3	180352	82.41	0
3	180577	82.51	0
3	180802	82.61	0
3	181027	82.71	0
3	181252	82.81	0
3	181477	82.91	0
3	181707	83.01	0
3	181932	83.11	0
3	182157	83.21	0
3	182382	83.31	0
3	182607	83.41	0
3	182832	83.51	0
3	183057	83.61	0
3	183282	83.71	0
3	183507	83.81	0
3	183732	83.91	0
3	183962	84.01	0
3	184187	84.11	0
3	184412	84.21	0
3	184637	84.31	0
3	184862	84.41	0
3	185087	84.51	0
3	185312	84.61	0
3	185537	84.71	0
3	185762	84.81	0
3	185987	84.91	0
3	186217	85.01	0
3	186442	85.11	0
3	186667	85.21	0
3	186892	85.31	0
3	187117	85.41	0
3	187342	85.51	0
3	187567	85.61	0
3	187792	85.71	0
3	188017	85.81	0
3	188242	85.91	0
3	188472	86.01	0
3	188697	86.11	0
3	188922	86.21	0
3	189147	86.31	0
3	189372	86.41	0
3	189597	86.51	0
3	189822	86.61	0
3	190047	86.71	0
3	190272	86.81	0
3	190497	86.91	0
3	190727	87.01	0
3	190952	87.11	0
3	191177	87.21	0
3	191402	87.31	0
3	191627	87.41	0
3	191852	87.51	0
3	192077	87.61	0
3	192302	87.71	0
3	192527	87.81	0
3	192752	87.91	0
3	192982	88.01	0
3	193207	88.11	0
3	193432	88.21	0
3	193657	88.31	0
3	193882	88.41	0
3	194107	88.51	0
3	194332	88.61	0
3	194557	88.71	0
3	194782	88.81	0
3	195007	88.91	0
3	195237	89.01	0
3	195462	89.11	0
3	195687	89.21	0
3	195912	89.31	0
3	196137	89.41	0
3	196362	89.51	0
3	196587	89.61	0
3	196812	89.71	0
3	197037	89.81	0
3	197262	89.91	0
3	197492	90.01	0
3	197717	90.11	0
3	197942	90.21	0
3	198167	90.31	0
3	198392	90.41	0
3	198617	90.51	0
3	198842	90.61	0
3	199067	90.71	0
3	199292	90.81	0
3	199517	90.91	0
3	199747	91.01	0
3	199972	91.11	0
3	200197	91.21	0
3	200422	91.31	0
3	200647	91.41	0
3	200872	91.51	0
3	201097	91.61	0
3	201322	91.71	0
3	201547	91.81	0
3	201772	91.91	0
3	202002	92.01	0
3	202227	92.11	0
3	202452	92.21	0
3	202677	92.31	0
3	202902	92.41	0
3	203127	92.51	0
3	203352	92.61	0
3	203577	92.71	0
3	203802	92.81	0
3	204027	92.91	0
3	204257	93.01	0
3	204482	93.11	0
3	204707	93.21	0
3	204932	93.31	0
3	205157	93.41	0
3	205382	93.51	0
3	205607	93.61	0
3	205832	93.71	0
3	206057	93.81	0
3	206282	93.91	0
3	206512	94.01	0
3	206737	94.11	0
3	206962	94.21	0
3	207187	94.31	0
3	207412	94.41	0
3	207637	94.51	0
3	207862	94.61	0
3	208087	94.71	0
3	208312	94.81	0
3	208537	94.91	0
3	208767	95.01	0
3	208992	95.11	0
3	209217	95.21	0
3	209442	95.31	0
3	209667	95.41	0
3	209892	95.51	0
3	210117	95.61	0
3	210342	95.71	0
3	210567	95.81	0
3	210792	95.91	0
3	211022	96.01	0
3	211247	96.11	0
3	211472	96.21	0
3	211697	96.31	0
3	211922	96.41	0
3	212147	96.51	0
3	212372	96.61	0
3	212597	96.71	0
3	212822	96.81	0
3	213047	96.91	0
3	213277	97.01	0
3	213502	97.11	0
3	213727	97.21	0
3	213952	97.31	0
3	214177	97.41	0
3	214402	97.51	0
3	214627	97.61	0
3	214852	97.71	0
3	215077	97.81	0
3	215302	97.91	0
3	215532	98.01	0
3	215757	98.11	0
3	215982	98.21	0
3	216207	98.31	0
3	216432	98.41	0
3	216657	98.51	0
3	216882	98.61	0
3	217107	98.71	0
3	217332	98.81	0
3	217557	98.91	0
3	217787	99.01	0
3	218012	99.11	0
3	218237	99.21	0
3	218462	99.31	0
3	218687	99.41	0
3	218912	99.51	0
3	219137	99.61	0
3	219362	99.71	0
3	219587	99.81	0
3	219812	99.91	0
3	220042	100.01	0
3	220267	100.11	0
3	220492	100.21	0
3	220717	100.31	0
3	220942	100.41	0
3	221167	100.51	0
3	221392	100.61	0
3	221617	100.71	0
3	221842	100.81	0
3	222067	100.91	0
3	222297	101.01	0
3	222522	101.11	0
3	222747	101.21	0
3	222972	101.31	0
3	223197	101.41	0
3	223422	101.51	0
3	223647	101.61	0
3	223872	101.71	0
3	224097	101.81	0
3	224322	101.91	0
3	224552	102.01	0
3	224777	102.11	0
3	225002	102.21	0
3	225227	102.31	0
3	225452	102.41	0
3	225677	102.51	0
3	225902	102.61	0
3	226127	102.71	0
3	226352	102.81	0
3	226577	102.91	0
3	226807	103.01	0
3	227032	103.11	0
3	227257	103.21	0
3	227482	103.31	0
3	227707	103.41	0
3	227932	103.51	0
3	228157	103.61	0
3	228382	103.71	0
3	228607	103.81	0
3	228832	103.91	0
3	229062	104.01	0
3	229287	104.11	0
3	229512	104.21	0
3	229737	104.31	0
3	229962	104.41	0
3	230187	104.51	0
3	230412	104.61	0
3	230637	104.71	0
3	230862	104.81	0
3	231087	104.91	0
3	231317	105.01	0
3	231542	105.11	0
3	231767	105.21	0
3	231992	105.31	0
3	232217	105.41	0
3	232442	105.51	0
3	232667	105.61	0
3	232892	105.71	0
3	233117	105.81	0
3	233342	105.91	0
3	233572	106.01	0
3	233797	106.11	0
3	234022	106.21	0
3	234247	106.31	0
3	234472	106.41	0
3	234697	106.51	0
3	234922	106.61	0
3	235147	106.71	0
3	235372	106.81	0
3	235597	106.91	0
3	235827	107.01	0
3	236052	107.11	0
3	236277	107.21	0
3	236502	107.31	0
3	236727	107.41	0
3	236952	107.51	0
3	237177	107.61	0
3	237402	107.71	0
3	237627	107.81	0
3	237852	107.91	0
3	238082	108.01	0
3	238307	108.11	0
3	238532	108.21	0
3	238757	108.31	0
3	238982	108.41	0
3	239207	108.51	0
3	239432	108.61	0
3	239657	108.71	0
3	239882	108.81	0
3	240107	108.91	0
3	240337	109.01	0
3	240562	109.11	0
3	240787	109.21	0
3	241012	109.31	0
3	241237	109.41	0
3	241462	109.51	0
3	241687	109.61	0
3	241912	109.71	0
3	242137	109.81	0
3	242362	109.91	0
3	242592	110.01	0
3	242817	110.11	0
3	243042	110.21	0
3	243267	110.31	0
3	243492	110.41	0
3	243717	110.51	0
3	243942	110.61	0
3	244167	110.71	0
3	244392	110.81	0
3	244617	110.91	0
3	244847	111.01	0
3	245072	111.11	0
3	245297	111.21	0
3	245522	111.31	0
3	245747	111.41	0
3	245972	111.51	0
3	246197	111.61	0
3	246422	111.71	0
3	246647	111.81	0
3	246872	111.91	0
3	247102	112.01	0
3	247327	112.11	0
3	247552	112.21	0
3	247777	112.31	0
3	248002	112.41	0
3	248227	112.51	0
3	248452	112.61	0
3	248677	112.71	0
3	248902	112.81	0
3	249127	112.91	0
3	249357	113.01	0
3	249582	113.11	0
3	249807	113.21	0
3	250032	113.31	0
3	250257	113.41	0
3	250482	113.51	0
3	250707	113.61	0
3	250932	113.71	0
3	251157	113.81	0
3	251382	113.91	0
3	251612	114.01	0
3	251837	114.11	0
3	252062	114.21	0
3	252287	114.31	0
3	252512	114.41	0
3	252737	114.51	0
3	252962	114.61	0
3	253187	114.71	0
3	253412	114.81	0
3	253637	114.91	0
3	253867	115.01	0
3	254092	115.11	0
3	254317	115.21	0
3	254542	115.31	0
3	254767	115.41	0
3	254992	115.51	0
3	255217	115.61	0
3	255442	115.71	0
3	255667	115.81	0
3	255892	115.91	0
3	256122	116.01	0
3	256347	116.11	0
3	256572	116.21	0
3	256797	116.31	0
3	257022	116.41	0
3	257247	116.51	0
3	257472	116.61	0
3	257697	116.71	0
3	257922	116.81	0
3	258147	116.91	0
3	258377	117.01	0
3	258602	117.11	0
3	258827	117.21	0
3	259052	117.31	0
3	259277	117.41	0
3	259502	117.51	0
3	259727	117.61	0
3	259952	117.71	0
3	260177	117.81	0
3	260402	117.91	0
3	260632	118.01	0
3	260857	118.11	0
3	261082	118.21	0
3	261307	118.31	0
3	261532	118.41	0
3	261757	118.51	0
3	261982	118.61	0
3	262207	118.71	0
3	262432	118.81	0
3	262657	118.91	0
3	262887	119.01	0
3	263112	119.11	0
3	263337	119.21	0
3	263562	119.31	0
3	263787	119.41	0
3	264012	119.51	0
3	264237	119.61	0
3	264462	119.71	0
3	264687	119.81	0
3	264912	119.91	0
7	113	1.11	242.45
7	263	1.21	242.45
7	413	1.31	242.45
7	563	1.41	242.45
7	713	1.51	242.45
7	863	1.61	242.45
7	1013	1.71	242.45
7	1163	1.81	242.45
7	1313	1.91	242.45
7	1467	2.01	242.45
7	1617	2.11	242.45
7	1767	2.21	242.45
7	1917	2.31	242.45
7	2067	2.41	242.45
7	2217	2.51	242.45
7	2367	2.61	242.45
7	2517	2.71	242.45
7	2667	2.81	242.45
7	2817	2.91	242.45
7	2971	3.01	242.45
7	3121	3.11	242.45
7	3271	3.21	242.45
7	3421	3.31	242.45
7	3571	3.41	242.45
7	3721	3.51	242.45
7	3871	3.61	242.45
7	4021	3.71	242.45
7	4171	3.81	242.45
7	4321	3.91	242.45
7	4475	4.01	242.45
7	4625	4.11	242.45
7	4775	4.21	242.45
7	4925	4.31	242.45
7	5075	4.41	242.45
7	5225	4.51	242.45
7	5375	4.61	242.45
7	5525	4.71	242.45
7	5675	4.81	242.45
7	5825	4.91	242.45
7	5979	5.01	242.45
7	6129	5.11	242.45
7	6279	5.21	242.45
7	6429	5.31	242.45
7	6579	5.41	242.45
7	6729	5.51	242.45
7	6879	5.61	242.45
7	7029	5.71	242.45
7	7179	5.81	242.45
7	7329	5.91	242.45
7	7484	6.01	242.45
7	7666	6.11	242.45
7	7891	6.21	242.45
7	8116	6.31	242.45
7	8341	6.41	242.45
7	8566	6.51	242.45
7	8791	6.61	242.45
7	9016	6.71	242.45
7	9241	6.81	242.45
7	9466	6.91	242.45
7	9696	7.01	242.45
7	9921	7.11	242.45
7	10146	7.21	242.45
7	10371	7.31	242.45
7	10596	7.41	242.45
7	10821	7.51	242.45
7	11046	7.61	242.45
7	11271	7.71	242.45
7	11496	7.81	242.45
7	11721	7.91	242.45
7	11951	8.01	242.45
7	12176	8.11	242.45
7	12401	8.21	242.45
7	12626	8.31	242.45
7	12851	8.41	242.45
7	13076	8.51	242.45
7	13301	8.61	242.45
7	13526	8.71	242.45
7	13751	8.81	242.45
7	13976	8.91	242.45
7	14206	9.01	242.45
7	14431	9.11	242.45
7	14656	9.21	242.45
7	14881	9.31	242.45
7	15106	9.41	242.45
7	15331	9.51	242.45
7	15556	9.61	242.45
7	15781	9.71	242.45
7	16006	9.81	242.45
7	16231	9.91	242.45
7	16461	10.01	242.45
7	16686	10.11	242.45
7	16911	10.21	242.45
7	17136	10.31	242.45
7	17361	10.41	242.45
7	17586	10.51	242.45
7	17811	10.61	242.45
7	18036	10.71	242.45
7	18261	10.81	242.45
7	18486	10.91	242.45
7	18716	11.01	242.45
7	18941	11.11	242.45
7	19166	11.21	242.45
7	19391	11.31	242.45
7	19616	11.41	242.45
7	19841	11.51	242.45
7	20066	11.61	242.45
7	20291	11.71	242.45
7	20516	11.81	242.45
7	20741	11.91	242.45
7	20971	12.01	242.45
7	21196	12.11	242.45
7	21421	12.21	242.45
7	21646	12.31	242.45
7	21871	12.41	242.45
7	22096	12.51	242.45
7	22321	12.61	242.45
7	22546	12.71	242.45
7	22771	12.81	242.45
7	22996	12.91	242.45
7	23226	13.01	242.45
7	23451	13.11	242.45
7	23676	13.21	242.45
7	23901	13.31	242.45
7	24126	13.41	242.45
7	24351	13.51	242.45
7	24576	13.61	242.45
7	24801	13.71	242.45
7	25026	13.81	242.45
7	25251	13.91	242.45
7	25481	14.01	242.45
7	25706	14.11	242.45
7	25931	14.21	242.45
7	26156	14.31	242.45
7	26381	14.41	242.45
7	26606	14.51	242.45
7	26831	14.61	242.45
7	27056	14.71	242.45
7	27281	14.81	242.45
7	27506	14.91	242.45
7	27736	15.01	242.45
7	27961	15.11	242.45
7	28186	15.21	242.45
7	28411	15.31	242.45
7	28636	15.41	242.45
7	28861	15.51	242.45
7	29086	15.61	242.45
7	29311	15.71	242.45
7	29536	15.81	242.45
7	29761	15.91	242.45
7	29992	16.01	242.45
7	30406	16.11	242.45
7	30631	16.21	242.45
7	30856	16.31	242.45
7	31081	16.41	242.45
7	31306	16.51	242.45
7	31531	16.61	242.45
7	31756	16.71	242.45
7	31981	16.81	242.45
7	32206	16.91	242.45
7	32436	17.01	242.45
7	32661	17.11	242.45
7	32886	17.21	242.45
7	33111	17.31	242.45
7	33336	17.41	242.45
7	33561	17.51	242.45
7	33786	17.61	242.45
7	34011	17.71	242.45
7	34236	17.81	242.45
7	34461	17.91	242.45
7	34691	18.01	242.45
7	34916	18.11	242.45
7	35141	18.21	242.45
7	35366	18.31	242.45
7	35591	18.41	242.45
7	35816	18.51	242.45
7	36041	18.61	242.45
7	36266	18.71	242.45
7	36491	18.81	242.45
7	36716	18.91	242.45
7	36946	19.01	242.45
7	37171	19.11	242.45
7	37396	19.21	242.45
7	37621	19.31	242.45
7	37846	19.41	242.45
7	38071	19.51	242.45
7	38296	19.61	242.45
7	38521	19.71	242.45
7	38746	19.81	242.45
7	38971	19.91	242.45
7	39201	20.01	242.45
7	39426	20.11	242.45
7	39651	20.21	242.45
7	39876	20.31	242.45
7	40101	20.41	242.45
7	40326	20.51	242.45
7	40551	20.61	242.45
7	40776	20.71	242.45
7	41001	20.81	242.45
7	41226	20.91	242.45
7	41456	21.01	242.45
7	41681	21.11	242.45
7	41906	21.21	242.45
7	42131	21.31	242.45
7	42356	21.41	242.45
7	42581	21.51	242.45
7	42806	21.61	242.45
7	43031	21.71	242.45
7	43256	21.81	242.45
7	43481	21.91	242.45
7	43711	22.01	242.45
7	43936	22.11	242.45
7	44161	22.21	242.45
7	44386	22.31	242.45
7	44611	22.41	242.45
7	44836	22.51	242.45
7	45061	22.61	242.45
7	45286	22.71	242.45
7	45511	22.81	242.45
7	45736	22.91	242.45
7	45966	23.01	242.45
7	46191	23.11	242.45
7	46416	23.21	242.45
7	46641	23.31	242.45
7	46866	23.41	242.45
7	47091	23.51	242.45
7	47316	23.61	242.45
7	47541	23.71	242.45
7	47766	23.81	242.45
7	47991	23.91	242.45
7	48221	24.01	242.45
7	48446	24.11	242.45
7	48671	24.21	242.45
7	48896	24.31	242.45
7	49121	24.41	242.45
7	49346	24.51	242.45
7	49571	24.61	242.45
7	49796	24.71	242.45
7	50021	24.81	242.45
7	50246	24.91	242.45
7	50476	25.01	242.45
7	50701	25.11	242.45
7	50926	25.21	242.45
7	51151	25.31	242.45
7	51376	25.41	242.45
7	51601	25.51	242.45
7	51826	25.61	242.45
7	52051	25.71	242.45
7	52276	25.81	242.45
7	52501	25.91	242.45
7	52731	26.01	242.45
7	52956	26.11	242.45
7	53181	26.21	242.45
7	53406	26.31	242.45
7	53631	26.41	242.45
7	53856	26.51	242.45
7	54081	26.61	242.45
7	54306	26.71	242.45
7	54531	26.81	242.45
7	54756	26.91	242.45
7	54986	27.01	242.45
7	55211	27.11	242.45
7	55436	27.21	242.45
7	55661	27.31	242.45
7	55886	27.41	242.45
7	56111	27.51	242.45
7	56336	27.61	242.45
7	56561	27.71	242.45
7	56786	27.81	242.45
7	57011	27.91	242.45
7	57241	28.01	242.45
7	57466	28.11	242.45
7	57691	28.21	242.45
7	57916	28.31	242.45
7	58141	28.41	242.45
7	58366	28.51	242.45
7	58591	28.61	242.45
7	58816	28.71	242.45
7	59041	28.81	242.45
7	59266	28.91	242.45
7	59496	29.01	242.45
7	59721	29.11	242.45
7	59946	29.21	242.45
7	60171	29.31	242.45
7	60396	29.41	242.45
7	60621	29.51	242.45
7	60846	29.61	242.45
7	61071	29.71	242.45
7	61296	29.81	242.45
7	61521	29.91	242.45
7	61751	30.01	242.45
7	61976	30.11	242.45
7	62201	30.21	242.45
7	62426	30.31	242.45
7	62651	30.41	242.45
7	62876	30.51	242.45
7	63101	30.61	242.45
7	63326	30.71	242.45
7	63551	30.81	242.45
7	63776	30.91	242.45
7	64006	31.01	242.45
7	64231	31.11	242.45
7	64456	31.21	242.45
7	64681	31.31	242.45
7	64906	31.41	242.45
7	65131	31.51	242.45
7	65356	31.61	242.45
7	65581	31.71	242.45
7	65806	31.81	242.45
7	66031	31.91	242.45
7	66261	32.01	242.45
7	66486	32.11	242.45
7	66711	32.21	242.45
7	66936	32.31	242.45
7	67161	32.41	242.45
7	67386	32.51	242.45
7	67611	32.61	242.45
7	67836	32.71	242.45
7	68061	32.81	242.45
7	68286	32.91	242.45
7	68516	33.01	242.45
7	68741	33.11	242.45
7	68966	33.21	242.45
7	69191	33.31	242.45
7	69416	33.41	242.45
7	69641	33.51	242.45
7	69866	33.61	242.45
7	70091	33.71	242.45
7	70316	33.81	242.45
7	70541	33.91	242.45
7	70771	34.01	242.45
7	70996	34.11	242.45
7	71221	34.21	242.45
7	71446	34.31	242.45
7	71671	34.41	242.45
7	71896	34.51	242.45
7	72121	34.61	242.45
7	72346	34.71	242.45
7	72571	34.81	242.45
7	72796	34.91	242.45
7	73026	35.01	242.45
7	73251	35.11	242.45
7	73476	35.21	242.45
7	73701	35.31	242.45
7	73926	35.41	242.45
7	74151	35.51	242.45
7	74376	35.61	242.45
7	74601	35.71	242.45
7	74826	35.81	242.45
7	75051	35.91	242.45
7	75281	36.01	242.45
7	75506	36.11	242.45
7	75731	36.21	242.45
7	75956	36.31	242.45
7	76181	36.41	242.45
7	76406	36.51	242.45
7	76631	36.61	242.45
7	76856	36.71	242.45
7	77081	36.81	242.45
7	77306	36.91	242.45
7	77536	37.01	242.45
7	77761	37.11	242.45
7	77986	37.21	242.45
7	78211	37.31	242.45
7	78436	37.41	242.45
7	78661	37.51	242.45
7	78886	37.61	242.45
7	79111	37.71	242.45
7	79336	37.81	242.45
7	79561	37.91	242.45
7	79791	38.01	242.45
7	80016	38.11	242.45
7	80241	38.21	242.45
7	80466	38.31	242.45
7	80691	38.41	242.45
7	80916	38.51	242.45
7	81141	38.61	242.45
7	81366	38.71	242.45
7	81591	38.81	242.45
7	81816	38.91	242.45
7	82046	39.01	242.45
7	82271	39.11	242.45
7	82496	39.21	242.45
7	82721	39.31	242.45
7	82946	39.41	242.45
7	83171	39.51	242.45
7	83396	39.61	242.45
7	83621	39.71	242.45
7	83846	39.81	242.45
7	84071	39.91	242.45
7	84301	40.01	242.45
7	84526	40.11	242.45
7	84751	40.21	242.45
7	84976	40.31	242.45
7	85201	40.41	242.45
7	85426	40.51	242.45
7	85651	40.61	242.45
7	85876	40.71	242.45
7	86101	40.81	242.45
7	86326	40.91	242.45
7	86556	41.01	242.45
7	86781	41.11	242.45
7	87006	41.21	242.45
7	87231	41.31	242.45
7	87456	41.41	242.45
7	87681	41.51	242.45
7	87906	41.61	242.45
7	88131	41.71	242.45
7	88356	41.81	242.45
7	88581	41.91	242.45
7	88811	42.01	242.45
7	89036	42.11	242.45
7	89261	42.21	242.45
7	89486	42.31	242.45
7	89711	42.41	242.45
7	89936	42.51	242.45
7	90161	42.61	242.45
7	90386	42.71	242.45
7	90611	42.81	242.45
7	90836	42.91	242.45
7	91066	43.01	242.45
7	91291	43.11	242.45
7	91516	43.21	242.45
7	91741	43.31	242.45
7	91966	43.41	242.45
7	92191	43.51	242.45
7	92416	43.61	242.45
7	92641	43.71	242.45
7	93307	43.81	242.45
7	93532	43.91	242.45
7	93762	44.01	242.45
7	93987	44.11	242.45
7	94212	44.21	242.45
7	94437	44.31	242.45
7	94662	44.41	242.45
7	94887	44.51	242.45
7	95112	44.61	242.45
7	95337	44.71	242.45
7	95562	44.81	242.45
7	95787	44.91	242.45
7	96017	45.01	242.45
7	96242	45.11	242.45
7	96467	45.21	242.45
7	96692	45.31	242.45
7	96917	45.41	242.45
7	97142	45.51	242.45
7	97367	45.61	242.45
7	97592	45.71	242.45
7	97817	45.81	242.45
7	98042	45.91	242.45
7	98272	46.01	242.45
7	98497	46.11	242.45
7	98722	46.21	242.45
7	98947	46.31	242.45
7	99172	46.41	242.45
7	99397	46.51	242.45
7	99622	46.61	242.45
7	99847	46.71	242.45
7	100072	46.81	242.45
7	100297	46.91	242.45
7	100527	47.01	242.45
7	100752	47.11	242.45
7	100977	47.21	242.45
7	101202	47.31	242.45
7	101427	47.41	242.45
7	101652	47.51	242.45
7	101877	47.61	242.45
7	102102	47.71	242.45
7	102327	47.81	242.45
7	102552	47.91	242.45
7	102782	48.01	242.45
7	103007	48.11	242.45
7	103232	48.21	242.45
7	103457	48.31	242.45
7	103682	48.41	242.45
7	103907	48.51	242.45
7	104132	48.61	242.45
7	104357	48.71	242.45
7	104582	48.81	242.45
7	104807	48.91	242.45
7	105037	49.01	242.45
7	105262	49.11	242.45
7	105487	49.21	242.45
7	105712	49.31	242.45
7	105937	49.41	242.45
7	106162	49.51	242.45
7	106387	49.61	242.45
7	106612	49.71	242.45
7	106837	49.81	242.45
7	107062	49.91	242.45
7	107292	50.01	242.45
7	107517	50.11	242.45
7	107742	50.21	242.45
7	107967	50.31	242.45
7	108192	50.41	242.45
7	108417	50.51	242.45
7	108642	50.61	242.45
7	108867	50.71	242.45
7	109092	50.81	242.45
7	109317	50.91	242.45
7	109547	51.01	242.45
7	109772	51.11	242.45
7	109997	51.21	242.45
7	110222	51.31	242.45
7	110447	51.41	242.45
7	110672	51.51	242.45
7	110897	51.61	242.45
7	111122	51.71	242.45
7	111347	51.81	242.45
7	111572	51.91	242.45
7	111802	52.01	242.45
7	112027	52.11	242.45
7	112252	52.21	242.45
7	112477	52.31	242.45
7	112702	52.41	242.45
7	112927	52.51	242.45
7	113152	52.61	242.45
7	113377	52.71	242.45
7	113602	52.81	242.45
7	113827	52.91	242.45
7	114057	53.01	242.45
7	114282	53.11	242.45
7	114507	53.21	242.45
7	114732	53.31	242.45
7	114957	53.41	242.45
7	115182	53.51	242.45
7	115407	53.61	242.45
7	115632	53.71	242.45
7	115857	53.81	242.45
7	116082	53.91	242.45
7	116312	54.01	242.45
7	116537	54.11	242.45
7	116762	54.21	242.45
7	116987	54.31	242.45
7	117212	54.41	242.45
7	117437	54.51	242.45
7	117662	54.61	242.45
7	117887	54.71	242.45
7	118112	54.81	242.45
7	118337	54.91	242.45
7	118567	55.01	242.45
7	118792	55.11	242.45
7	119017	55.21	242.45
7	119242	55.31	242.45
7	119467	55.41	242.45
7	119692	55.51	242.45
7	119917	55.61	242.45
7	120142	55.71	242.45
7	120367	55.81	242.45
7	120592	55.91	242.45
7	120822	56.01	242.45
7	121047	56.11	242.45
7	121272	56.21	242.45
7	121497	56.31	242.45
7	121722	56.41	242.45
7	121947	56.51	242.45
7	122172	56.61	242.45
7	122397	56.71	242.45
7	122622	56.81	242.45
7	122847	56.91	242.45
7	123077	57.01	242.45
7	123302	57.11	242.45
7	123527	57.21	242.45
7	123752	57.31	242.45
7	123977	57.41	242.45
7	124202	57.51	242.45
7	124427	57.61	242.45
7	124652	57.71	242.45
7	124877	57.81	242.45
7	125102	57.91	242.45
7	125332	58.01	242.45
7	125557	58.11	242.45
7	125782	58.21	242.45
7	126007	58.31	242.45
7	126232	58.41	242.45
7	126457	58.51	242.45
7	126682	58.61	242.45
7	126907	58.71	242.45
7	127132	58.81	242.45
7	127357	58.91	242.45
7	127587	59.01	242.45
7	127812	59.11	242.45
7	128037	59.21	242.45
7	128262	59.31	242.45
7	128487	59.41	242.45
7	128712	59.51	242.45
7	128937	59.61	242.45
7	129162	59.71	242.45
7	129387	59.81	242.45
7	129612	59.91	242.45
7	129842	60.01	242.45
7	130067	60.11	242.45
7	130292	60.21	242.45
7	130517	60.31	242.45
7	130742	60.41	242.45
7	130967	60.51	242.45
7	131192	60.61	242.45
7	131417	60.71	242.45
7	131642	60.81	242.45
7	131867	60.91	242.45
7	132097	61.01	242.45
7	132322	61.11	242.45
7	132547	61.21	242.45
7	132772	61.31	242.45
7	132997	61.41	242.45
7	133222	61.51	242.45
7	133447	61.61	242.45
7	133672	61.71	242.45
7	133897	61.81	242.45
7	134122	61.91	242.45
7	134352	62.01	242.45
7	134577	62.11	242.45
7	134802	62.21	242.45
7	135027	62.31	242.45
7	135252	62.41	242.45
7	135477	62.51	242.45
7	135702	62.61	242.45
7	135927	62.71	242.45
7	136152	62.81	242.45
7	136377	62.91	242.45
7	136607	63.01	242.45
7	136832	63.11	242.45
7	137057	63.21	242.45
7	137282	63.31	242.45
7	137507	63.41	242.45
7	137732	63.51	242.45
7	137957	63.61	242.45
7	138182	63.71	242.45
7	138407	63.81	242.45
7	138632	63.91	242.45
7	138862	64.01	242.45
7	139087	64.11	242.45
7	139312	64.21	242.45
7	139537	64.31	242.45
7	139762	64.41	242.45
7	139987	64.51	242.45
7	140212	64.61	242.45
7	140437	64.71	242.45
7	140662	64.81	242.45
7	140887	64.91	242.45
7	141117	65.01	242.45
7	141342	65.11	242.45
7	141567	65.21	242.45
7	141792	65.31	242.45
7	142017	65.41	242.45
7	142242	65.51	242.45
7	142467	65.61	242.45
7	142692	65.71	242.45
7	142917	65.81	242.45
7	143142	65.91	242.45
7	143372	66.01	242.45
7	143597	66.11	242.45
7	143822	66.21	242.45
7	144047	66.31	242.45
7	144272	66.41	242.45
7	144497	66.51	242.45
7	144722	66.61	242.45
7	144947	66.71	242.45
7	145172	66.81	242.45
7	145397	66.91	242.45
7	145627	67.01	242.45
7	145852	67.11	242.45
7	146077	67.21	242.45
7	146302	67.31	242.45
7	146527	67.41	242.45
7	146752	67.51	242.45
7	146977	67.61	242.45
7	147202	67.71	242.45
7	147427	67.81	242.45
7	147652	67.91	242.45
7	147882	68.01	242.45
7	148107	68.11	242.45
7	148332	68.21	242.45
7	148557	68.31	242.45
7	148782	68.41	242.45
7	149007	68.51	242.45
7	149232	68.61	242.45
7	149457	68.71	242.45
7	149682	68.81	242.45
7	149907	68.91	242.45
7	150137	69.01	242.45
7	150362	69.11	242.45
7	150587	69.21	242.45
7	150812	69.31	242.45
7	151037	69.41	242.45
7	151262	69.51	242.45
7	151487	69.61	242.45
7	151712	69.71	242.45
7	151937	69.81	242.45
7	152162	69.91	242.45
7	152392	70.01	242.45
7	152617	70.11	242.45
7	152842	70.21	242.45
7	153067	70.31	242.45
7	153292	70.41	242.45
7	153517	70.51	242.45
7	153742	70.61	242.45
7	153967	70.71	242.45
7	154192	70.81	242.45
7	154417	70.91	242.45
7	154647	71.01	242.45
7	154872	71.11	242.45
7	155097	71.21	242.45
7	155322	71.31	242.45
7	155547	71.41	242.45
7	155772	71.51	242.45
7	155997	71.61	242.45
7	156222	71.71	242.45
7	156447	71.81	242.45
7	156672	71.91	242.45
7	156902	72.01	242.45
7	157127	72.11	242.45
7	157352	72.21	242.45
7	157577	72.31	242.45
7	157802	72.41	242.45
7	158027	72.51	242.45
7	158252	72.61	242.45
7	158477	72.71	242.45
7	158702	72.81	242.45
7	158927	72.91	242.45
7	159157	73.01	242.45
7	159382	73.11	242.45
7	159607	73.21	242.45
7	159832	73.31	242.45
7	160057	73.41	242.45
7	160282	73.51	242.45
7	160507	73.61	242.45
7	160732	73.71	242.45
7	160957	73.81	242.45
7	161182	73.91	242.45
7	161412	74.01	242.45
7	161637	74.11	242.45
7	161862	74.21	242.45
7	162087	74.31	242.45
7	162312	74.41	242.45
7	162537	74.51	242.45
7	162762	74.61	242.45
7	162987	74.71	242.45
7	163212	74.81	242.45
7	163437	74.91	242.45
7	163667	75.01	242.45
7	163892	75.11	242.45
7	164117	75.21	242.45
7	164342	75.31	242.45
7	164567	75.41	242.45
7	164792	75.51	242.45
7	165017	75.61	242.45
7	165242	75.71	242.45
7	165467	75.81	242.45
7	165692	75.91	242.45
7	165922	76.01	242.45
7	166147	76.11	242.45
7	166372	76.21	242.45
7	166597	76.31	242.45
7	166822	76.41	242.45
7	167047	76.51	242.45
7	167272	76.61	242.45
7	167497	76.71	242.45
7	167722	76.81	242.45
7	167947	76.91	242.45
7	168177	77.01	242.45
7	168402	77.11	242.45
7	168627	77.21	242.45
7	168852	77.31	242.45
7	169077	77.41	242.45
7	169302	77.51	242.45
7	169527	77.61	242.45
7	169752	77.71	242.45
7	169977	77.81	242.45
7	170202	77.91	242.45
7	170432	78.01	242.45
7	170657	78.11	242.45
7	170882	78.21	242.45
7	171107	78.31	242.45
7	171332	78.41	242.45
7	171557	78.51	242.45
7	171782	78.61	242.45
7	172007	78.71	242.45
7	172232	78.81	242.45
7	172457	78.91	242.45
7	172687	79.01	242.45
7	172912	79.11	242.45
7	173137	79.21	242.45
7	173362	79.31	242.45
7	173587	79.41	242.45
7	173812	79.51	242.45
7	174037	79.61	242.45
7	174262	79.71	242.45
7	174487	79.81	242.45
7	174712	79.91	242.45
7	174942	80.01	242.45
7	175167	80.11	242.45
7	175392	80.21	242.45
7	175617	80.31	242.45
7	175842	80.41	242.45
7	176067	80.51	242.45
7	176292	80.61	242.45
7	176517	80.71	242.45
7	176742	80.81	242.45
7	176967	80.91	242.45
7	177197	81.01	242.45
7	177422	81.11	242.45
7	177647	81.21	242.45
7	177872	81.31	242.45
7	178097	81.41	242.45
7	178322	81.51	242.45
7	178547	81.61	242.45
7	178772	81.71	242.45
7	178997	81.81	242.45
7	179222	81.91	242.45
7	179452	82.01	242.45
7	179677	82.11	242.45
7	179902	82.21	242.45
7	180127	82.31	242.45
7	180352	82.41	242.45
7	180577	82.51	242.45
7	180802	82.61	242.45
7	181027	82.71	242.45
7	181252	82.81	242.45
7	181477	82.91	242.45
7	181707	83.01	242.45
7	181932	83.11	242.45
7	182157	83.21	242.45
7	182382	83.31	242.45
7	182607	83.41	242.45
7	182832	83.51	242.45
7	183057	83.61	242.45
7	183282	83.71	242.45
7	183507	83.81	242.45
7	183732	83.91	242.45
7	183962	84.01	242.45
7	184187	84.11	242.45
7	184412	84.21	242.45
7	184637	84.31	242.45
7	184862	84.41	242.45
7	185087	84.51	242.45
7	185312	84.61	242.45
7	185537	84.71	242.45
7	185762	84.81	242.45
7	185987	84.91	242.45
7	186217	85.01	242.45
7	186442	85.11	242.45
7	186667	85.21	242.45
7	186892	85.31	242.45
7	187117	85.41	242.45
7	187342	85.51	242.45
7	187567	85.61	242.45
7	187792	85.71	242.45
7	188017	85.81	242.45
7	188242	85.91	242.45
7	188472	86.01	242.45
7	188697	86.11	242.45
7	188922	86.21	242.45
7	189147	86.31	242.45
7	189372	86.41	242.45
7	189597	86.51	242.45
7	189822	86.61	242.45
7	190047	86.71	242.45
7	190272	86.81	242.45
7	190497	86.91	242.45
7	190727	87.01	242.45
7	190952	87.11	242.45
7	191177	87.21	242.45
7	191402	87.31	242.45
7	191627	87.41	242.45
7	191852	87.51	242.45
7	192077	87.61	242.45
[...]
65	151846	69.75447808526	4
65	152071	69.854483325518	4
65	152296	69.954488565773	4
65	152526	70.054480806026	4
65	152751	70.154486046276	4
65	152976	70.254478286524	4
65	153201	70.35448352677	4
65	153426	70.454488767014	4
65	153651	70.554481007256	4
65	153876	70.654486247496	4
65	154101	70.754478487734	4
65	154326	70.85448372797	4
65	154551	70.954488968205	4
65	154781	71.054481208438	4
65	155006	71.154486448669	4
65	155231	71.254478688898	4
65	155456	71.354483929126	4
65	155681	71.454489169352	4
65	155906	71.554481409577	4
65	156131	71.6544866498	4
65	156356	71.754478890021	4
65	156581	71.854484130241	4
65	156806	71.95448937046	4
65	157036	72.054481610677	4
65	157261	72.154486850893	4
65	157486	72.254479091108	4
65	157711	72.354484331321	4
65	157936	72.454489571534	4
65	158161	72.554481811745	4
65	158386	72.654487051955	4
65	158611	72.754479292164	4
65	158836	72.854484532371	4
65	159061	72.954476772578	4
65	159291	73.054482012783	4
65	159516	73.154487252988	4
65	159741	73.254479493191	4
65	159966	73.354484733394	4
65	160191	73.454476973595	4
65	160416	73.554482213796	4
65	160641	73.654487453996	4
65	160866	73.754479694195	4
65	161091	73.854484934394	4
65	161316	73.954477174591	4
65	161546	74.054482414788	4
65	161771	74.154487654983	4
65	161996	74.254479895178	4
65	162221	74.354485135373	4
65	162446	74.454477375566	4
65	162671	74.554482615759	4
65	162896	74.654487855952	4
65	163121	74.754480096143	4
65	163346	74.854485336334	4
65	163571	74.954477576525	4
65	163801	75.054482816714	4
65	164026	75.154488056903	4
65	164251	75.254480297092	4
65	164476	75.354485537279	4
65	164701	75.454477777466	4
65	164926	75.554483017653	4
65	165151	75.65448825784	4
65	165376	75.754480498025	4
65	165601	75.85448573821	4
65	165826	75.954477978395	4
65	166056	76.05448321858	4
65	166281	76.154488458763	4
65	166506	76.254480698946	4
65	166731	76.354485939129	4
65	166956	76.454478179312	4
65	167181	76.554483419495	4
65	167406	76.654488659676	4
65	167631	76.754480899857	4
65	167856	76.854486140038	4
65	168081	76.954478380219	4
65	168311	77.0544836204	4
65	168536	77.15448886058	4
65	168761	77.254481100759	4
65	168986	77.354486340938	4
65	169211	77.454478581117	4
65	169436	77.554483821296	4
65	169661	77.654489061475	4
65	169886	77.754481301653	4
65	170111	77.85448654183	4
65	170336	77.954478782007	4
65	170566	78.054484022184	4
65	170791	78.154489262361	4
65	171016	78.254481502538	4
65	171241	78.354486742715	4
65	171466	78.454478982891	4
65	171691	78.554484223067	4
65	171916	78.654489463242	4
65	172141	78.754481703417	4
65	172366	78.854486943592	4
65	172591	78.954479183767	4
65	172821	79.054484423942	4
65	173046	79.154476664117	4
65	173271	79.254481904292	4
65	173496	79.354487144466	4
65	173721	79.45447938464	4
65	173946	79.554484624813	4
65	174171	79.654476864986	4
65	174396	79.754482105159	4
65	174621	79.854487345332	4
65	174846	79.954479585505	4
65	175076	80.054484825678	4
65	175301	80.154477065851	4
65	175526	80.254482306024	4
65	175751	80.354487546197	4
65	175976	80.45447978637	4
65	176201	80.554485026542	4
65	176426	80.654477266714	4
65	176651	80.754482506886	4
65	176876	80.854487747057	4
65	177101	80.954479987228	4
65	177331	81.054485227399	4
65	177556	81.15447746757	4
65	177781	81.254482707741	4
65	178006	81.354487947912	4
65	178231	81.454480188083	4
65	178456	81.554485428254	4
65	178681	81.654477668425	4
65	178906	81.754482908596	4
65	179131	81.854488148767	4
65	179356	81.954480388938	4
65	179586	82.054485629109	4
65	179811	82.15447786928	4
65	180036	82.25448310945	4
65	180261	82.35448834962	4
65	180486	82.45448058979	4
65	180711	82.55448582996	4
65	180936	82.65447807013	4
65	181161	82.7544833103	4
65	181386	82.854488550469	4
65	181611	82.954480790638	4
65	181841	83.054486030807	4
65	182066	83.154478270976	4
65	182291	83.254483511145	4
65	182516	83.354488751314	4
65	182741	83.454480991483	4
65	182966	83.554486231652	4
65	183191	83.654478471821	4
65	183416	83.75448371199	4
65	183641	83.854488952159	4
65	183866	83.954481192328	4
65	184096	84.054486432497	4
65	184321	84.154478672666	4
65	184546	84.254483912835	4
65	184771	84.354489153004	4
65	184996	84.454481393173	4
65	185221	84.554486633342	4
65	185446	84.654478873511	4
65	185671	84.75448411368	4
65	185896	84.854489353849	4
65	186121	84.954481594018	4
65	186351	85.054486834187	4
65	186576	85.154479074356	4
65	186801	85.254484314525	4
65	187026	85.354489554694	4
65	187251	85.454481794863	4
65	187476	85.554487035031	4
65	187701	85.654479275199	4
65	187926	85.754484515367	4
65	188151	85.854476755535	4
65	188376	85.954481995703	4
65	188606	86.054487235871	4
65	188831	86.154479476039	4
65	189056	86.254484716207	4
65	189281	86.354476956375	4
65	189506	86.454482196543	4
65	189731	86.554487436711	4
65	189956	86.654479676879	4
65	190181	86.754484917047	4
65	190406	86.854477157215	4
65	190631	86.954482397383	4
65	190861	87.054487637551	4
65	191086	87.154479877719	4
65	191311	87.254485117887	4
65	191536	87.354477358055	4
65	191761	87.454482598222	4
65	191986	87.554487838389	4
65	192211	87.654480078556	4
65	192436	87.754485318723	4
65	192661	87.85447755889	4
65	192886	87.954482799057	4
65	193116	88.054488039224	4
65	193341	88.154480279391	4
65	193566	88.254485519558	4
65	193791	88.354477759725	4
65	194016	88.454482999892	4
65	194241	88.554488240059	4
65	194466	88.654480480226	4
65	194691	88.754485720393	4
65	194916	88.85447796056	4
65	195141	88.954483200727	4
65	195371	89.054488440894	4
65	195596	89.154480681061	4
65	195821	89.254485921228	4
65	196046	89.354478161395	4
65	196271	89.454483401562	4
65	196496	89.554488641729	4
65	196721	89.654480881896	4
65	196946	89.754486122063	4
65	197171	89.85447836223	4
65	197396	89.954483602397	4
65	197626	90.054488842564	4
65	197851	90.154481082731	4
65	198076	90.254486322898	4
65	198301	90.354478563065	4
65	198526	90.454483803232	4
65	198751	90.554489043399	4
65	198976	90.654481283566	4
65	199201	90.754486523733	4
65	199426	90.8544787639	4
65	199651	90.954484004067	4
65	199881	91.054489244234	4
65	200106	91.154481484401	4
65	200331	91.254486724568	4
65	200556	91.354478964735	4
65	200781	91.454484204902	4
65	201006	91.554489445069	4
65	201231	91.654481685236	4
65	201456	91.754486925403	4
65	201681	91.85447916557	4
65	201906	91.954484405737	4
65	202136	92.054476645904	4
65	202361	92.154481886071	4
65	202586	92.254487126238	4
65	202811	92.354479366405	4
65	203036	92.454484606572	4
65	203261	92.554476846739	4
65	203486	92.654482086906	4
65	203711	92.754487327073	4
65	203936	92.85447956724	4
65	204161	92.954484807407	4
65	204391	93.054477047574	4
65	204616	93.154482287741	4
65	204841	93.254487527908	4
65	205066	93.354479768075	4
65	205291	93.454485008242	4
65	205516	93.554477248409	4
65	205741	93.654482488576	4
65	205966	93.754487728743	4
65	206191	93.85447996891	4
65	206416	93.954485209077	4
65	206646	94.054477449244	4
65	206871	94.154482689411	4
65	207096	94.254487929578	4
65	207321	94.354480169745	4
65	207546	94.454485409912	4
65	207771	94.554477650079	4
65	207996	94.654482890246	4
65	208221	94.754488130413	4
65	208446	94.85448037058	4
65	208671	94.954485610747	4
65	208901	95.054477850914	4
65	209126	95.154483091081	4
65	209351	95.254488331248	4
65	209576	95.354480571415	4
65	209801	95.454485811582	4
65	210026	95.554478051749	4
65	210251	95.654483291916	4
65	210476	95.754488532083	4
65	210701	95.85448077225	4
65	210926	95.954486012417	4
65	211156	96.054478252584	4
65	211381	96.154483492751	4
65	211606	96.254488732918	4
65	211831	96.354480973085	4
65	212056	96.454486213252	4
65	212281	96.554478453419	4
65	212506	96.654483693586	4
65	212731	96.754488933753	4
65	212956	96.85448117392	4
65	213181	96.954486414087	4
65	213411	97.054478654254	4
65	213636	97.154483894421	4
65	213861	97.254489134588	4
65	214086	97.354481374755	4
65	214311	97.454486614922	4
65	214536	97.554478855089	4
65	214761	97.654484095256	4
65	214986	97.754489335423	4
65	215211	97.85448157559	4
65	215436	97.954486815757	4
65	215666	98.054479055924	4
65	215891	98.154484296091	4
65	216116	98.254489536258	4
65	216341	98.354481776425	4
65	216566	98.454487016592	4
65	216791	98.554479256759	4
65	217016	98.654484496926	4
65	217241	98.754476737093	4
65	217466	98.85448197726	4
65	217691	98.954487217427	4
65	217921	99.054479457594	4
65	218146	99.154484697761	4
65	218371	99.254476937928	4
65	218596	99.354482178095	4
65	218821	99.454487418262	4
65	219046	99.554479658429	4
65	219271	99.654484898596	4
65	219496	99.754477138763	4
65	219721	99.85448237893	4
65	219946	99.954487619097	4
65	220176	100.054479859264	4
65	220401	100.154485099431	4
65	220626	100.254477339598	4
65	220851	100.354482579765	4
65	221076	100.454487819932	4
65	221301	100.554480060099	4
65	221526	100.654485300266	4
65	221751	100.754477540433	4
65	221976	100.8544827806	4
65	222201	100.954488020767	4
65	222431	101.054480260934	4
65	222656	101.154485501101	4
65	222881	101.254477741268	4
65	223106	101.354482981435	4
65	223331	101.454488221602	4
65	223556	101.554480461769	4
65	223781	101.654485701936	4
65	224006	101.754477942103	4
65	224231	101.85448318227	4
65	224456	101.954488422437	4
65	224686	102.054480662604	4
65	224911	102.154485902771	4
65	225136	102.254478142938	4
65	225361	102.354483383105	4
65	225586	102.454488623272	4
65	225811	102.554480863439	4
65	226036	102.654486103606	4
65	226261	102.754478343773	4
65	226486	102.85448358394	4
65	226711	102.954488824107	4
65	226941	103.054481064274	4
65	227166	103.154486304441	4
65	227391	103.254478544608	4
65	227616	103.354483784775	4
65	227841	103.454489024942	4
65	228066	103.554481265109	4
65	228291	103.654486505276	4
65	228516	103.754478745443	4
65	228741	103.85448398561	4
65	228966	103.954489225777	4
65	229196	104.054481465944	4
65	229421	104.154486706111	4
65	229646	104.254478946278	4
65	229871	104.354484186445	4
65	230096	104.454489426612	4
65	230321	104.554481666779	4
65	230546	104.654486906946	4
65	230771	104.754479147113	4
65	230996	104.85448438728	4
65	231221	104.954476627447	4
65	231451	105.054481867614	4
65	231676	105.154487107781	4
65	231901	105.254479347948	4
65	232126	105.354484588115	4
65	232351	105.454476828282	4
65	232576	105.554482068449	4
65	232801	105.654487308616	4
65	233026	105.754479548783	4
65	233251	105.85448478895	4
65	233476	105.954477029117	4
65	233706	106.054482269284	4
65	233931	106.154487509451	4
65	234156	106.254479749618	4
65	234381	106.354484989785	4
65	234606	106.454477229952	4
65	234831	106.554482470119	4
65	235056	106.654487710286	4
65	235281	106.754479950453	4
65	235506	106.85448519062	4
65	235731	106.954477430787	4
65	235961	107.054482670954	4
65	236186	107.154487911121	4
65	236411	107.254480151288	4
65	236636	107.354485391455	4
65	236861	107.454477631622	4
65	237086	107.554482871789	4
65	237311	107.654488111956	4
65	237536	107.754480352123	4
65	237761	107.85448559229	4
65	237986	107.954477832457	4
65	238216	108.054483072624	4
65	238441	108.154488312791	4
65	238666	108.254480552958	4
65	238891	108.354485793125	4
65	239116	108.454478033292	4
65	239341	108.554483273459	4
65	239566	108.654488513626	4
65	239791	108.754480753793	4
65	240016	108.85448599396	4
65	240241	108.954478234127	4
65	240471	109.054483474294	4
65	240696	109.154488714461	4
65	240921	109.254480954628	4
65	241146	109.354486194795	4
65	241371	109.454478434962	4
65	241596	109.554483675129	4
65	241821	109.654488915296	4
65	242046	109.754481155463	4
65	242271	109.85448639563	4
65	242496	109.954478635797	4
65	242726	110.054483875964	4
65	242951	110.154489116131	4
65	243176	110.254481356298	4
65	243401	110.354486596465	4
65	243626	110.454478836632	4
65	243851	110.554484076799	4
65	244076	110.654489316966	4
65	244301	110.754481557133	4
65	244526	110.8544867973	4
65	244751	110.954479037467	4
65	244981	111.054484277634	4
65	245206	111.154489517801	4
65	245431	111.254481757968	4
65	245656	111.354486998135	4
65	245881	111.454479238302	4
65	246106	111.554484478469	4
65	246331	111.654476718636	4
65	246556	111.754481958803	4
65	246781	111.85448719897	4
65	247006	111.954479439137	4
65	247236	112.054484679304	4
65	247461	112.154476919471	4
65	247686	112.254482159638	4
65	247911	112.354487399805	4
65	248136	112.454479639972	4
65	248361	112.554484880139	4
65	248586	112.654477120306	4
65	248811	112.754482360473	4
65	249036	112.85448760064	4
65	249261	112.954479840807	4
65	249491	113.054485080974	4
65	249716	113.154477321141	4
65	249941	113.254482561308	4
65	250166	113.354487801475	4
65	250391	113.454480041642	4
65	250616	113.554485281809	4
65	250841	113.654477521976	4
65	251066	113.754482762143	4
65	251291	113.85448800231	4
65	251516	113.954480242477	4
65	251746	114.054485482644	4
65	251971	114.154477722811	4
65	252196	114.254482962978	4
65	252421	114.354488203145	4
65	252646	114.454480443312	4
65	252871	114.554485683479	4
65	253096	114.654477923646	4
65	253321	114.754483163813	4
65	253546	114.85448840398	4
65	253771	114.954480644147	4
65	254001	115.054485884314	4
65	254226	115.154478124481	4
65	254451	115.254483364648	4
65	254676	115.354488604815	4
65	254901	115.454480844982	4
65	255126	115.554486085149	4
65	255351	115.654478325316	4
65	255576	115.754483565483	4
65	255801	115.85448880565	4
65	256026	115.954481045817	4
65	256256	116.054486285984	4
65	256481	116.154478526151	4
65	256706	116.254483766318	4
65	256931	116.354489006485	4
65	257156	116.454481246652	4
65	257381	116.554486486819	4
65	257606	116.654478726986	4
65	257831	116.754483967153	4
65	258056	116.85448920732	4
65	258281	116.954481447487	4
65	258511	117.054486687654	4
65	258736	117.154478927821	4
65	258961	117.254484167988	4
65	259186	117.354489408155	4
65	259411	117.454481648322	4
65	259636	117.554486888489	4
65	259861	117.654479128656	4
65	260086	117.754484368823	4
65	260311	117.85448960899	4
65	260536	117.954481849157	4
65	260766	118.054487089324	4
65	260991	118.154479329491	4
65	261216	118.254484569658	4
65	261441	118.354476809825	4
65	261666	118.454482049992	4
65	261891	118.554487290159	4
65	262116	118.654479530326	4
65	262341	118.754484770493	4
65	262566	118.85447701066	4
65	262791	118.954482250827	4
65	263021	119.054487490994	4
65	263246	119.154479731161	4
65	263471	119.254484971328	4
65	263696	119.354477211495	4
65	263921	119.454482451662	4
65	264146	119.554487691829	4
65	264371	119.654479931996	4
65	264596	119.754485172163	4
65	264821	119.85447741233	4
65	265046	119.954482652497	4
68	9652	7	0
68	11907	8	0
68	14162	9	0
68	16417	10	0
68	18672	11	0
68	20927	12	0
68	23182	13	0
68	25437	14	0
68	27692	15	0
68	29947	16	0
68	32392	17	0
68	34647	18	0
68	36902	19	0
68	39157	20	0
68	41412	21	0
68	43667	22	0
68	45922	23	0
68	48177	24	0
68	50432	25	0
68	52687	26	0
68	54942	27	0
68	57197	28	0
68	59452	29	0
68	61707	30	0
68	63962	31	0
68	66217	32	0
68	68472	33	0
68	70727	34	0
68	72982	35	0
68	75237	36	0
68	77492	37	0
68	79747	38	0
68	82002	39	0
68	84257	40	0
68	86512	41	0
68	88767	42	0
68	91022	43	0
68	93718	44	0
68	95973	45	0
68	98228	46	0
68	100483	47	0
68	102738	48	0
68	104993	49	0
68	107248	50	0
68	109503	51	0
68	111758	52	0
68	114013	53	0
68	116268	54	0
68	118523	55	0
68	120778	56	0
68	123033	57	0
68	125288	58	0
68	127543	59	0
68	129798	60	0
68	132053	61	0
68	134308	62	0
68	136563	63	0
68	138818	64	0
68	141073	65	0
68	143328	66	0
68	145583	67	0
68	147838	68	0
68	150093	69	0
68	152348	70	0
68	154603	71	0
68	156858	72	0
68	159113	73	0
68	161368	74	0
68	163623	75	0
68	165878	76	0
68	168133	77	0
68	170388	78	0
68	172643	79	0
68	174898	80	0
68	177153	81	0
68	179408	82	0
68	181663	83	0
68	183918	84	0
68	186173	85	0
68	188428	86	0
68	190683	87	0
68	192938	88	0
68	195193	89	0
68	197448	90	0
68	199703	91	0
68	201958	92	0
68	204213	93	0
68	206468	94	0
68	208723	95	0
68	210978	96	0
68	213233	97	0
68	215488	98	0
68	217743	99	0
68	219998	100	0
68	222253	101	0
68	224508	102	0
68	226763	103	0
68	229018	104	0
68	231273	105	0
68	233528	106	0
68	235783	107	0
68	238038	108	0
68	240293	109	0
68	242548	110	0
68	244803	111	0
68	247058	112	0
68	249313	113	0
68	251568	114	0
68	253823	115	0
68	256078	116	0
68	258333	117	0
68	260588	118	0
68	262843	119	0
68	265098	120	0
67	9652	7	0.014985
67	11907	8	0.01561
67	14162	9	0.01561
67	16417	10	0.01561
67	18672	11	0.01561
67	20927	12	0.01561
67	23182	13	0.01561
67	25437	14	0.01561
67	27692	15	0.01561
67	29947	16	0.01561
67	32392	17	0.016044163832
67	34647	18	0.01561
67	36902	19	0.01561
67	39157	20	0.01561
67	41412	21	0.01561
67	43667	22	0.01561
67	45922	23	0.01561
67	48177	24	0.01561
67	50432	25	0.01561
67	52687	26	0.01561
67	54942	27	0.01561
67	57197	28	0.01561
67	59452	29	0.01561
67	61707	30	0.01561
67	63962	31	0.01561
67	66217	32	0.01561
67	68472	33	0.01561
67	70727	34	0.01561
67	72982	35	0.01561
67	75237	36	0.01561
67	77492	37	0.01561
67	79747	38	0.01561
67	82002	39	0.01561
67	84257	40	0.01561
67	86512	41	0.01561
67	88767	42	0.01561
67	91022	43	0.01561
67	93718	44	0.016524627044
67	95973	45	0.01561
67	98228	46	0.01561
67	100483	47	0.01561
67	102738	48	0.01561
67	104993	49	0.01561
67	107248	50	0.01561
67	109503	51	0.01561
67	111758	52	0.01561
67	114013	53	0.01561
67	116268	54	0.01561
67	118523	55	0.01561
67	120778	56	0.01561
67	123033	57	0.01561
67	125288	58	0.01561
67	127543	59	0.01561
67	129798	60	0.01561
67	132053	61	0.01561
67	134308	62	0.01561
67	136563	63	0.01561
67	138818	64	0.01561
67	141073	65	0.01561
67	143328	66	0.01561
67	145583	67	0.01561
67	147838	68	0.01561
67	150093	69	0.01561
67	152348	70	0.01561
67	154603	71	0.01561
67	156858	72	0.01561
67	159113	73	0.01561
67	161368	74	0.01561
67	163623	75	0.01561
67	165878	76	0.01561
67	168133	77	0.01561
67	170388	78	0.01561
67	172643	79	0.01561
67	174898	80	0.01561
67	177153	81	0.01561
67	179408	82	0.01561
67	181663	83	0.01561
67	183918	84	0.01561
67	186173	85	0.01561
67	188428	86	0.01561
67	190683	87	0.01561
67	192938	88	0.01561
67	195193	89	0.01561
67	197448	90	0.01561
67	199703	91	0.01561
67	201958	92	0.01561
67	204213	93	0.01561
67	206468	94	0.01561
67	208723	95	0.01561
67	210978	96	0.01561
67	213233	97	0.01561
67	215488	98	0.01561
67	217743	99	0.01561
67	219998	100	0.01561
67	222253	101	0.01561
67	224508	102	0.01561
67	226763	103	0.01561
67	229018	104	0.01561
67	231273	105	0.01561
67	233528	106	0.01561
67	235783	107	0.01561
67	238038	108	0.01561
67	240293	109	0.01561
67	242548	110	0.01561
67	244803	111	0.01561
67	247058	112	0.01561
67	249313	113	0.01561
67	251568	114	0.01561
67	253823	115	0.01561
67	256078	116	0.01561
67	258333	117	0.01561
67	260588	118	0.01561
67	262843	119	0.01561
67	265098	120	0.01561
66	9652	7	4
66	11907	8	4
66	14162	9	4
66	16417	10	4
66	18672	11	4
66	20927	12	4
66	23182	13	4
66	25437	14	4
66	27692	15	4
66	29947	16	4
66	32392	17	4
66	34647	18	4
66	36902	19	4
66	39157	20	4
66	41412	21	4
66	43667	22	4
66	45922	23	4
66	48177	24	4
66	50432	25	4
66	52687	26	4
66	54942	27	4
66	57197	28	4
66	59452	29	4
66	61707	30	4
66	63962	31	4
66	66217	32	4
66	68472	33	4
66	70727	34	4
66	72982	35	4
66	75237	36	4
66	77492	37	4
66	79747	38	4
66	82002	39	4
66	84257	40	4
66	86512	41	4
66	88767	42	4
66	91022	43	4
66	93718	44	4
66	95973	45	4
66	98228	46	4
66	100483	47	4
66	102738	48	4
66	104993	49	4
66	107248	50	4
66	109503	51	4
66	111758	52	4
66	114013	53	4
66	116268	54	4
66	118523	55	4
66	120778	56	4
66	123033	57	4
66	125288	58	4
66	127543	59	4
66	129798	60	4
66	132053	61	4
66	134308	62	4
66	136563	63	4
66	138818	64	4
66	141073	65	4
66	143328	66	4
66	145583	67	4
66	147838	68	4
66	150093	69	4
66	152348	70	4
66	154603	71	4
66	156858	72	4
66	159113	73	4
66	161368	74	4
66	163623	75	4
66	165878	76	4
66	168133	77	4
66	170388	78	4
66	172643	79	4
66	174898	80	4
66	177153	81	4
66	179408	82	4
66	181663	83	4
66	183918	84	4
66	186173	85	4
66	188428	86	4
66	190683	87	4
66	192938	88	4
66	195193	89	4
66	197448	90	4
66	199703	91	4
66	201958	92	4
66	204213	93	4
66	206468	94	4
66	208723	95	4
66	210978	96	4
66	213233	97	4
66	215488	98	4
66	217743	99	4
66	219998	100	4
66	222253	101	4
66	224508	102	4
66	226763	103	4
66	229018	104	4
66	231273	105	4
66	233528	106	4
66	235783	107	4
66	238038	108	4
66	240293	109	4
66	242548	110	4
66	244803	111	4
66	247058	112	4
66	249313	113	4
66	251568	114	4
66	253823	115	4
66	256078	116	4
66	258333	117	4
66	260588	118	4
66	262843	119	4
66	265098	120	4

