version 2
run LeaveManeuver-31-20200702-13:09:48-22179
attr configname LeaveManeuver
attr datetime 20200702-13:09:48
attr experiment LeaveManeuver
attr inifile omnetpp.ini
attr iterationvars "$nCars=5, $platoonSize=5, $nLanes=1, $caccXi=2, $caccOmegaN=1, $ploegH=0.5, $leaderHeadway=1.2, $leaderSpeed=100, $beaconInterval=0.1, $priority=2, $packetSize=200"
attr iterationvarsf nCars=5,platoonSize=5,nLanes=1,caccXi=2,caccOmegaN=1,ploegH=0.5,leaderHeadway=1.2,leaderSpeed=100,beaconInterval=0.1,priority=2,packetSize=200-
attr measurement "$nCars=5, $platoonSize=5, $nLanes=1, $caccXi=2, $caccOmegaN=1, $ploegH=0.5, $leaderHeadway=1.2, $leaderSpeed=100, $beaconInterval=0.1, $priority=2, $packetSize=200"
attr network Highway
attr processid 22179
attr repetition 6
attr replication #6
attr resultdir results
attr runnumber 31
attr seedset 6
itervar beaconInterval 0.1
itervar caccOmegaN 1
itervar caccXi 2
itervar leaderHeadway 1.2
itervar leaderSpeed 100
itervar nCars 5
itervar nLanes 1
itervar packetSize 200
itervar platoonSize 5
itervar ploegH 0.5
itervar priority 2
param *.manager.command "\"sumo-gui\""
param *.manager.ignoreGuiCommands false
param *.node[*].scenario_type "\"LeaveManeuverScenario\""
param *.playgroundSizeX 65000m
param *.playgroundSizeY 25000m
param *.playgroundSizeZ 50m
param *.annotations.draw false
param *.obstacles.debug false
param *.world.useTorus false
param *.world.use2D false
param *.manager.updateInterval 0.01s
param *.manager.host "\"localhost\""
param *.manager.moduleType "\"org.car2x.plexe.PlatoonCar\""
param *.manager.moduleName "\"node\""
param *.manager.moduleDisplayString "\"\""
param *.manager.autoShutdown true
param *.manager.margin 25
param *.connectionManager.sendDirect true
param *.connectionManager.maxInterfDist 2600m
param *.connectionManager.drawMaxIntfDist false
param *.**.nic.mac1609_4.useServiceChannel false
param *.**.nic.mac1609_4.txPower 100mW
param *.**.nic.mac1609_4.bitrate 6Mbps
param *.**.nic.mac1609_4.useAcks true
param *.**.nic.mac1609_4.ackErrorRate 0.50
param *.**.nic.mac1609_4.frameErrorRate 0.50
param *.**.nic.phy80211p.minPowerLevel -94dBm
param *.**.nic.phy80211p.maxTXPower 100mW
param *.**.nic.phy80211p.useNoiseFloor true
param *.**.nic.phy80211p.noiseFloor -95dBm
param *.**.nic.phy80211p.decider "xmldoc(\"config.xml\")"
param *.**.nic.phy80211p.analogueModels "xmldoc(\"config.xml\")"
param *.**.nic.phy80211p.usePropagationDelay true
param *.node[*].mobility.x 0
param *.node[*].mobility.y 0
param *.node[*].mobility.z 1.895
param **.seed 6
param *.manager.configFile "\"./sumocfg/freeway.sumo.cfg\""
param **.numberOfCars 5
param **.numberOfCarsPerPlatoon 5
param **.numberOfLanes 1
param **.controllerXi 2
param **.controllerOmegaN 1
param *.node[*].helper_type "\"PositionHelper\""
param *.node[*].scenario.caccC1 0.5
param *.node[*].scenario.caccXi 2
param *.node[*].scenario.caccOmegaN "1 Hz"
param *.node[*].scenario.caccSpacing "5 m"
param *.node[*].scenario.engineTau "0.5 s"
param *.node[*].scenario.ploegH 0.5s
param *.node[*].scenario.ploegKp 0.2
param *.node[*].scenario.ploegKd 0.7
param *.node[*].scenario.useRealisticEngine false
param **.numericController 0
param *.node[*].scenario.controller "\"CACC\""
param *.node[*].scenario.accHeadway "0.1 s"
param *.node[*].scenario.leaderHeadway 1.2s
param *.node[*].scenario.leaderSpeed 100kmph
param *.node[*].appl_type "\"GeneralPlatooningApp\""
param *.node[*].appl.leaveManeuver "\"Leader_Leave\""
param *.node[*].protocol_type "\"SimplePlatooningBeaconing\""
param *.node[*].prot.beaconingInterval 0.1s
param *.node[*].prot.priority 2
param *.node[*].prot.packetSize 200
param *.node[*].unicast.packetLossRate 0
param **.traffic_type "\"PlatoonsTrafficManager\""
param **.traffic.platoonInsertTime "1 s"
param **.traffic.platoonInsertSpeed 100kmph
param **.traffic.nCars 5
param **.traffic.platoonSize 5
param **.traffic.nLanes 1
param **.traffic.platooningVType "\"vtypeauto\""
param **.traffic.platoonInsertDistance "5 m"
param **.traffic.platoonInsertHeadway "0 s"
param **.traffic.platoonLeaderHeadway 1.2s

vector 0 Highway.node[0].appl distance ETV
vector 1 Highway.node[0].appl relativeSpeed ETV
vector 2 Highway.node[0].appl nodeId ETV
vector 3 Highway.node[0].appl acceleration ETV
vector 4 Highway.node[0].appl controllerAcceleration ETV
vector 5 Highway.node[0].appl speed ETV
vector 6 Highway.node[0].appl posx ETV
vector 7 Highway.node[0].appl posy ETV
vector 8 Highway.node[1].appl distance ETV
vector 9 Highway.node[1].appl relativeSpeed ETV
vector 10 Highway.node[1].appl nodeId ETV
vector 11 Highway.node[1].appl acceleration ETV
vector 12 Highway.node[1].appl controllerAcceleration ETV
vector 13 Highway.node[1].appl speed ETV
vector 14 Highway.node[1].appl posx ETV
vector 15 Highway.node[1].appl posy ETV
vector 16 Highway.node[2].appl distance ETV
vector 17 Highway.node[2].appl relativeSpeed ETV
vector 18 Highway.node[2].appl nodeId ETV
vector 19 Highway.node[2].appl acceleration ETV
vector 20 Highway.node[2].appl controllerAcceleration ETV
vector 21 Highway.node[2].appl speed ETV
vector 22 Highway.node[2].appl posx ETV
vector 23 Highway.node[2].appl posy ETV
vector 24 Highway.node[3].appl distance ETV
vector 25 Highway.node[3].appl relativeSpeed ETV
vector 26 Highway.node[3].appl nodeId ETV
vector 27 Highway.node[3].appl acceleration ETV
vector 28 Highway.node[3].appl controllerAcceleration ETV
vector 29 Highway.node[3].appl speed ETV
vector 30 Highway.node[3].appl posx ETV
vector 31 Highway.node[3].appl posy ETV
vector 32 Highway.node[4].appl distance ETV
vector 33 Highway.node[4].appl relativeSpeed ETV
vector 34 Highway.node[4].appl nodeId ETV
vector 35 Highway.node[4].appl acceleration ETV
vector 36 Highway.node[4].appl controllerAcceleration ETV
vector 37 Highway.node[4].appl speed ETV
vector 38 Highway.node[4].appl posx ETV
vector 39 Highway.node[4].appl posy ETV
vector 40 Highway.node[3].prot frontDelay ETV
vector 41 Highway.node[3].prot frontDelayId ETV
vector 42 Highway.node[2].prot leaderDelay ETV
vector 43 Highway.node[2].prot leaderDelayId ETV
vector 44 Highway.node[3].prot leaderDelay ETV
vector 45 Highway.node[3].prot leaderDelayId ETV
vector 46 Highway.node[2].prot frontDelay ETV
vector 47 Highway.node[2].prot frontDelayId ETV
vector 48 Highway.node[4].prot frontDelay ETV
vector 49 Highway.node[4].prot frontDelayId ETV
vector 50 Highway.node[1].prot leaderDelay ETV
vector 51 Highway.node[1].prot leaderDelayId ETV
vector 52 Highway.node[1].prot frontDelay ETV
vector 53 Highway.node[1].prot frontDelayId ETV
vector 54 Highway.node[4].prot leaderDelay ETV
vector 55 Highway.node[4].prot leaderDelayId ETV
vector 56 Highway.node[0].prot nodeId ETV
vector 57 Highway.node[0].prot busyTime ETV
vector 58 Highway.node[0].prot collisions ETV
vector 59 Highway.node[1].prot nodeId ETV
vector 60 Highway.node[1].prot busyTime ETV
vector 61 Highway.node[1].prot collisions ETV
vector 62 Highway.node[2].prot nodeId ETV
vector 63 Highway.node[2].prot busyTime ETV
vector 64 Highway.node[2].prot collisions ETV
vector 65 Highway.node[3].prot nodeId ETV
vector 66 Highway.node[3].prot busyTime ETV
vector 67 Highway.node[3].prot collisions ETV
vector 68 Highway.node[4].prot nodeId ETV
vector 69 Highway.node[4].prot busyTime ETV
vector 70 Highway.node[4].prot collisions ETV
vector 71 Highway.node[0].prot leaderDelay ETV
vector 72 Highway.node[0].prot leaderDelayId ETV
4	113	1.11	-0.00218518
4	299	1.21	-0.00213419
4	506	1.31	-0.00205408
4	704	1.41	-0.00195152
4	899	1.51	-0.00183238
4	1094	1.61	-0.00170178
4	1292	1.71	-0.00156412
4	1484	1.81	-0.00142314
4	1673	1.91	-0.00128196
4	1873	2.01	-0.00114315
4	2068	2.11	-0.00100877
4	2263	2.21	-0.000880447
4	2452	2.31	-0.000759381
4	2641	2.41	-0.000646445
4	2836	2.51	-0.000542204
4	3025	2.61	-0.000446965
4	3232	2.71	-0.000360819
4	3427	2.81	-0.000283678
4	3616	2.91	-0.000215307
4	3804	3.01	-0.000155357
4	3981	3.11	-0.000103391
4	4170	3.21	-5.89069e-05
4	4362	3.31	-2.13575e-05
4	4566	3.41	9.82919e-06
4	4764	3.51	3.52368e-05
4	4965	3.61	5.54479e-05
4	5163	3.71	7.10335e-05
4	5358	3.81	8.25451e-05
4	5553	3.91	9.05081e-05
4	5750	4.01	9.54172e-05
4	5939	4.11	9.7733e-05
4	6134	4.21	9.78798e-05
4	6329	4.31	9.62447e-05
4	6509	4.41	9.31771e-05
4	6719	4.51	8.89894e-05
4	6908	4.61	8.39579e-05
4	7088	4.71	7.83245e-05
4	7304	4.81	7.22983e-05
4	7493	4.91	6.6058e-05
4	7708	5.01	5.9754e-05
4	7897	5.11	5.35107e-05
4	8104	5.21	4.74294e-05
4	8296	5.31	4.15898e-05
4	8488	5.41	3.60534e-05
4	8686	5.51	3.0865e-05
4	8884	5.61	2.60551e-05
4	9073	5.71	2.16419e-05
4	9268	5.81	1.76335e-05
4	9466	5.91	1.40289e-05
4	9663	6.01	1.08202e-05
4	9858	6.11	7.99392e-06
4	10053	6.21	5.532e-06
4	10257	6.31	3.41315e-06
4	10446	6.41	1.61374e-06
4	10641	6.51	1.08654e-07
4	10821	6.61	-1.12799e-06
4	11019	6.71	-2.12224e-06
4	11208	6.81	-2.89981e-06
4	11403	6.91	-3.48567e-06
4	11609	7.01	-3.90376e-06
4	11819	7.11	-4.17673e-06
4	12011	7.21	-4.32574e-06
4	12203	7.31	-4.3704e-06
4	12383	7.41	-4.32865e-06
4	12584	7.51	-4.21676e-06
4	12779	7.61	-4.04934e-06
4	12968	7.71	-3.83937e-06
4	13163	7.81	-3.59826e-06
4	13346	7.91	-3.33592e-06
4	13540	8.01	-3.06089e-06
4	13735	8.11	-2.78036e-06
4	13939	8.21	-2.50036e-06
4	14137	8.31	-2.22582e-06
4	14335	8.41	-1.96068e-06
4	14542	8.51	-1.708e-06
4	14743	8.61	-1.47009e-06
4	14941	8.71	-1.24855e-06
4	15130	8.81	-1.04441e-06
4	15316	8.91	-8.58219e-07
4	15510	9.01	-6.90082e-07
4	15711	9.11	-5.39774e-07
4	15906	9.21	-4.06787e-07
4	16110	9.31	-2.90396e-07
4	16314	9.41	-1.89707e-07
4	16506	9.51	-1.03704e-07
4	16692	9.61	-3.12909e-08
4	16884	9.71	2.86736e-08
4	17085	9.81	7.73515e-08
4	17280	9.91	1.15897e-07
4	17480	10.01	1.45439e-07
4	17672	10.11	1.67065e-07
4	17867	10.21	1.81809e-07
4	18083	10.31	1.90644e-07
4	18281	10.41	1.94472e-07
4	18473	10.51	1.94125e-07
4	18677	10.61	1.90358e-07
4	18869	10.71	1.83853e-07
4	19067	10.81	1.75219e-07
4	19265	10.91	1.64994e-07
4	19463	11.01	1.53647e-07
4	20872	11.11	1.41582e-07
4	21067	11.21	1.29146e-07
4	21250	11.31	1.16627e-07
4	21448	11.41	1.04266e-07
4	21628	11.51	9.22547e-08
4	21829	11.61	8.07471e-08
4	22039	11.71	6.98584e-08
4	22243	11.81	5.96732e-08
4	22429	11.91	5.02471e-08
4	22632	12.01	4.16133e-08
4	22830	12.11	3.37845e-08
4	23016	12.21	2.67558e-08
4	23208	12.31	2.05102e-08
4	23400	12.41	1.50187e-08
4	23601	12.51	1.02442e-08
4	23802	12.61	6.14406e-09
4	23997	12.71	2.67022e-09
4	24195	12.81	-2.27374e-10
4	24405	12.91	-2.60059e-09
4	24599	13.01	-4.50058e-09
4	24788	13.11	-5.97851e-09
4	24980	13.21	-7.08376e-09
4	25169	13.31	-7.86322e-09
4	25358	13.41	-8.36167e-09
4	25562	13.51	-8.62066e-09
4	25778	13.61	-8.67857e-09
4	25976	13.71	-8.57057e-09
4	26162	13.81	-8.32792e-09
4	26363	13.91	-7.97975e-09
4	26566	14.01	-7.55094e-09
4	26761	14.11	-7.06351e-09
4	27336	14.21	-6.53699e-09
4	27531	14.31	-5.98774e-09
4	27729	14.41	-5.42997e-09
4	27936	14.51	-4.87468e-09
4	28137	14.61	-4.33182e-09
4	28341	14.71	-3.80886e-09
4	28536	14.81	-3.31148e-09
4	28731	14.91	-2.8443e-09
4	28931	15.01	-2.40981e-09
4	29114	15.11	-2.01013e-09
4	29309	15.21	-1.64633e-09
4	29519	15.31	-1.31806e-09
4	29711	15.41	-1.02531e-09
4	29909	15.51	-7.66676e-10
4	30098	15.61	-5.40723e-10
4	30293	15.71	-3.46034e-10
4	30494	15.81	-1.79767e-10
4	30695	15.91	-4.01457e-11
4	30892	16.01	7.49623e-11
4	31093	16.11	1.68043e-10
4	31297	16.21	2.41585e-10
4	31492	16.31	2.97362e-10
4	31696	16.41	3.37863e-10
4	31879	16.51	3.64864e-10
4	32074	16.61	3.80851e-10
4	32278	16.71	3.86891e-10
4	33354	16.81	3.84759e-10
4	33549	16.91	3.76232e-10
4	33743	17.01	3.62377e-10
4	33932	17.11	3.44613e-10
4	34124	17.21	3.24007e-10
4	34316	17.31	3.00915e-10
4	34517	17.41	2.76756e-10
4	34721	17.51	2.52243e-10
4	34925	17.61	2.27374e-10
4	35123	17.71	2.0286e-10
4	35312	17.81	1.79057e-10
4	35516	17.91	1.56319e-10
4	35716	18.01	1.35003e-10
4	35908	18.11	1.15108e-10
4	36091	18.21	9.66338e-11
4	36283	18.31	7.99361e-11
4	36484	18.41	6.46594e-11
4	36682	18.51	5.08038e-11
4	36877	18.61	3.83693e-11
4	37078	18.71	2.73559e-11
4	37267	18.81	1.77636e-11
4	37471	18.91	9.59233e-12
4	37668	19.01	2.84217e-12
4	37869	19.11	-2.84217e-12
4	38061	19.21	-7.4607e-12
4	38253	19.31	-1.13687e-11
4	38454	19.41	-1.42109e-11
4	38658	19.51	-1.63425e-11
4	38856	19.61	-1.77636e-11
4	39045	19.71	-1.84741e-11
4	39222	19.81	-1.88294e-11
4	39423	19.91	-1.88294e-11
4	39626	20.01	-1.88294e-11
4	39824	20.11	-1.81188e-11
4	40010	20.21	-1.7053e-11
4	40205	20.31	-1.63425e-11
4	40397	20.41	-1.52767e-11
4	40589	20.51	-1.45661e-11
4	40793	20.61	-1.35003e-11
4	40982	20.71	-1.27898e-11
4	41177	20.81	-1.1724e-11
4	41366	20.91	-1.10134e-11
4	41572	21.01	-9.9476e-12
4	41767	21.11	-9.23706e-12
4	41962	21.21	-8.17124e-12
4	42169	21.31	-7.4607e-12
4	42379	21.41	-6.39488e-12
4	42565	21.51	-5.68434e-12
4	42772	21.61	-4.61853e-12
4	42976	21.71	-3.90799e-12
4	43180	21.81	-2.84217e-12
4	43369	21.91	-2.13163e-12
4	43566	22.01	-1.06581e-12
4	43764	22.11	-3.55271e-13
4	43953	22.21	7.10543e-13
4	44157	22.31	1.42109e-12
4	44343	22.41	2.13163e-12
4	44538	22.51	2.84217e-12
4	44736	22.61	3.19744e-12
4	44940	22.71	3.90799e-12
4	45135	22.81	4.26326e-12
4	45315	22.91	4.61853e-12
4	45524	23.01	5.32907e-12
4	45719	23.11	5.68434e-12
4	45902	23.21	5.68434e-12
4	46103	23.31	6.03961e-12
4	46298	23.41	6.39488e-12
4	46493	23.51	6.75016e-12
4	46700	23.61	6.75016e-12
4	46886	23.71	7.10543e-12
4	47081	23.81	7.10543e-12
4	47273	23.91	7.4607e-12
4	47470	24.01	7.4607e-12
4	47659	24.11	7.81597e-12
4	47851	24.21	7.81597e-12
4	48052	24.31	7.81597e-12
4	48235	24.41	7.81597e-12
4	48424	24.51	8.17124e-12
4	48622	24.61	8.17124e-12
4	48820	24.71	8.17124e-12
4	49721	24.81	8.17124e-12
4	49919	24.91	8.17124e-12
4	50122	25.01	8.52651e-12
4	50317	25.11	8.52651e-12
4	50512	25.21	8.52651e-12
4	50707	25.31	8.52651e-12
4	50893	25.41	8.52651e-12
4	51085	25.51	8.52651e-12
4	51286	25.61	8.52651e-12
4	51490	25.71	8.52651e-12
4	51691	25.81	8.52651e-12
4	51886	25.91	8.52651e-12
4	52083	26.01	8.88178e-12
4	52269	26.11	8.88178e-12
4	52461	26.21	8.88178e-12
4	52656	26.31	8.88178e-12
4	52851	26.41	8.88178e-12
4	53037	26.51	8.88178e-12
4	53226	26.61	8.88178e-12
4	53436	26.71	8.88178e-12
4	53628	26.81	8.88178e-12
4	53817	26.91	8.88178e-12
4	54014	27.01	8.88178e-12
4	54218	27.11	8.88178e-12
4	54410	27.21	8.88178e-12
4	54605	27.31	8.88178e-12
4	54791	27.41	8.88178e-12
4	54983	27.51	8.88178e-12
4	55181	27.61	8.88178e-12
4	55373	27.71	8.88178e-12
4	55574	27.81	8.88178e-12
4	55778	27.91	8.88178e-12
4	56430	28.01	8.88178e-12
4	56637	28.11	8.88178e-12
4	56829	28.21	8.88178e-12
4	57033	28.31	8.88178e-12
4	57222	28.41	8.88178e-12
4	57420	28.51	8.88178e-12
4	57621	28.61	8.88178e-12
4	57816	28.71	8.88178e-12
4	58014	28.81	8.88178e-12
4	58209	28.91	8.88178e-12
4	58418	29.01	8.88178e-12
4	58622	29.11	8.88178e-12
4	58823	29.21	8.88178e-12
4	59030	29.31	8.88178e-12
4	59222	29.41	8.88178e-12
4	59405	29.51	8.88178e-12
4	59585	29.61	8.88178e-12
4	59774	29.71	8.88178e-12
4	59966	29.81	8.88178e-12
4	60158	29.91	8.88178e-12
4	60364	30.01	8.88178e-12
4	60553	30.11	8.88178e-12
4	60754	30.21	8.88178e-12
4	60940	30.31	8.88178e-12
4	61129	30.41	8.88178e-12
4	61327	30.51	8.88178e-12
4	61510	30.61	8.88178e-12
4	61708	30.71	8.88178e-12
4	61900	30.81	8.88178e-12
4	62095	30.91	8.88178e-12
4	62277	31.01	8.88178e-12
4	62481	31.11	8.88178e-12
4	62676	31.21	8.88178e-12
4	62865	31.31	8.88178e-12
4	63072	31.41	8.88178e-12
4	63276	31.51	8.88178e-12
4	63465	31.61	8.88178e-12
4	63660	31.71	8.88178e-12
4	63858	31.81	8.88178e-12
4	64065	31.91	8.88178e-12
4	64262	32.01	8.88178e-12
4	64451	32.11	8.88178e-12
4	64631	32.21	8.88178e-12
4	64823	32.31	8.88178e-12
4	65027	32.41	8.88178e-12
4	65234	32.51	8.88178e-12
4	65432	32.61	8.88178e-12
4	65621	32.71	8.88178e-12
4	65807	32.81	8.88178e-12
4	66005	32.91	8.88178e-12
4	66205	33.01	8.88178e-12
4	66403	33.11	8.88178e-12
4	66589	33.21	8.88178e-12
4	66787	33.31	8.88178e-12
4	66982	33.41	8.88178e-12
4	67174	33.51	8.88178e-12
4	67369	33.61	8.88178e-12
4	67567	33.71	8.88178e-12
4	67765	33.81	8.88178e-12
4	67957	33.91	8.88178e-12
4	68157	34.01	8.88178e-12
4	68361	34.11	8.88178e-12
4	68556	34.21	8.88178e-12
4	68754	34.31	8.88178e-12
4	68958	34.41	8.88178e-12
4	69159	34.51	8.88178e-12
4	69354	34.61	8.88178e-12
4	69552	34.71	8.88178e-12
4	69741	34.81	8.88178e-12
4	69936	34.91	8.88178e-12
4	70139	35.01	8.88178e-12
4	70328	35.11	8.88178e-12
4	70523	35.21	8.88178e-12
4	70718	35.31	8.88178e-12
4	70919	35.41	8.88178e-12
4	71117	35.51	8.88178e-12
4	71315	35.61	8.88178e-12
4	71504	35.71	8.88178e-12
4	73251	35.81	8.88178e-12
4	73440	35.91	1.5
4	73637	36.01	1.5
4	73829	36.11	1.5
4	74021	36.21	1.5
4	74207	36.31	1.5
4	74399	36.41	1.5
4	74597	36.51	1.5
4	74801	36.61	1.5
4	74999	36.71	1.5
4	75209	36.81	1.5
4	75389	36.91	1.5
4	75604	37.01	1.5
4	75784	37.11	1.5
4	75967	37.21	1.5
4	76171	37.31	1.5
4	76357	37.41	1.5
4	76558	37.51	1.5
4	76753	37.61	1.5
4	76948	37.71	1.5
4	77134	37.81	1.5
4	77320	37.91	1.5
4	77520	38.01	1.5
4	77718	38.11	1.5
4	77919	38.21	1.5
4	78111	38.31	1.5
4	78303	38.41	1.5
4	78489	38.51	1.5
4	78687	38.61	1.5
4	78882	38.71	1.5
4	79077	38.81	1.5
4	79275	38.91	1.5
4	79475	39.01	1.5
4	79667	39.11	1.5
4	79859	39.21	1.5
4	80051	39.31	1.5
4	80240	39.41	1.5
4	80429	39.51	1.5
4	80621	39.61	1.5
4	80822	39.71	1.5
4	81014	39.81	1.5
4	81212	39.91	1.5
4	81418	40.01	1.5
4	81610	40.11	1.5
4	81802	40.21	1.5
4	81997	40.31	1.5
4	82198	40.41	1.5
4	82387	40.51	1.5
4	82579	40.61	1.5
4	82777	40.71	1.5
4	82963	40.81	1.5
4	83143	40.91	1.44829
4	83343	41.01	1.2994
4	83541	41.11	1.15395
4	83742	41.21	1.01394
4	83943	41.31	0.88089
4	84138	41.41	0.755947
4	84327	41.51	0.63989
4	84519	41.61	0.533207
4	84708	41.71	0.436126
4	84900	41.81	0.348663
4	85104	41.91	0.27066
4	85304	42.01	0.201816
4	85490	42.11	0.141719
4	85679	42.21	0.0898778
4	85871	42.31	0.0457375
4	86075	42.41	0.00870682
4	86270	42.51	-0.0218274
4	86468	42.61	-0.0464846
4	86672	42.71	-0.0658784
4	86867	42.81	-0.0806065
4	87074	42.91	-0.0912429
4	87286	43.01	-0.0983319
4	87481	43.11	-0.102384
4	87688	43.21	-0.103871
4	87883	43.31	-0.103229
4	88081	43.41	-0.10085
4	88288	43.51	-0.0970896
4	88480	43.61	-0.0922635
4	88681	43.71	-0.0866496
4	88864	43.81	-0.0804901
4	89056	43.91	-0.0739936
4	89253	44.01	-0.067337
4	89439	44.11	-0.0606685
4	89631	44.21	-0.0541099
4	89829	44.31	-0.047759
4	90021	44.41	-0.0416925
4	90210	44.51	-0.0359681
4	90402	44.61	-0.0306269
4	90591	44.71	-0.025696
4	90786	44.81	-0.02119
4	90987	44.91	-0.0171135
4	91199	45.01	-0.0134624
4	91394	45.11	-0.0102258
4	91592	45.21	-0.00738719
4	91778	45.31	-0.00492607
4	91973	45.41	-0.00281874
4	92174	45.51	-0.00103944
4	92375	45.61	0.000438851
4	92579	45.71	0.00164369
4	92783	45.81	0.0026026
4	92996	45.91	0.00334256
4	93199	46.01	0.00388963
4	93397	46.11	0.00426866
4	93592	46.21	0.00450303
4	93784	46.31	0.00461453
4	93970	46.41	0.00462323
4	94165	46.51	0.00454745
4	94363	46.61	0.00440372
4	94546	46.71	0.00420683
4	94738	46.81	0.00396985
4	94927	46.91	0.00370425
4	95121	47.01	0.00341992
4	95316	47.11	0.00312534
4	95511	47.21	0.00282762
4	95706	47.31	0.00253267
4	95889	47.41	0.00224528
4	96087	47.51	0.00196926
4	96285	47.61	0.0017075
4	96468	47.71	0.00146214
4	96666	47.81	0.00123463
4	96870	47.91	0.00102585
4	97067	48.01	0.000836185
4	97262	48.11	0.000665592
4	97457	48.21	0.000513708
4	97649	48.31	0.000379897
4	97844	48.41	0.000263312
4	98039	48.51	0.000162948
4	98231	48.61	7.76924e-05
4	98432	48.71	6.35955e-06
4	98633	48.81	-5.22723e-05
4	98834	48.91	-9.94332e-05
4	99043	49.01	-0.000136338
4	99253	49.11	-0.000164168
4	99448	49.21	-0.000184053
4	99634	49.31	-0.000197065
4	99835	49.41	-0.000204205
4	100027	49.51	-0.000206399
4	100219	49.61	-0.000204498
4	100411	49.71	-0.00019927
4	100597	49.81	-0.000191407
4	100795	49.91	-0.000181524
4	100983	50.01	-0.00017016
4	101187	50.11	-0.000157786
4	101391	50.21	-0.000144805
4	101589	50.31	-0.000131559
4	101778	50.41	-0.000118333
4	101976	50.51	-0.00010536
4	102171	50.61	-9.28289e-05
4	102375	50.71	-8.08836e-05
4	102570	50.81	-6.96336e-05
4	102753	50.91	-5.91558e-05
4	102953	51.01	-4.94993e-05
4	103139	51.11	-4.06898e-05
4	103340	51.21	-3.27331e-05
4	103547	51.31	-2.56188e-05
4	103739	51.41	-1.93231e-05
4	103934	51.51	-1.38118e-05
4	104144	51.61	-9.04291e-06
4	104327	51.71	-4.96857e-06
4	104504	51.81	-1.53708e-06
4	104702	51.91	1.3055e-06
4	104917	52.01	3.614e-06
4	105121	52.11	5.44295e-06
4	105313	52.21	6.8457e-06
4	105511	52.31	7.87366e-06
4	105697	52.41	8.57573e-06
4	105913	52.51	8.99786e-06
4	106114	52.61	9.18276e-06
4	106300	52.71	9.16975e-06
4	106501	52.81	8.99461e-06
4	106693	52.91	8.6896e-06
4	106884	53.01	8.28354e-06
4	107085	53.11	7.80185e-06
4	107280	53.21	7.26676e-06
4	107469	53.31	6.69747e-06
4	107667	53.41	6.11033e-06
4	107865	53.51	5.51908e-06
4	108060	53.61	4.93505e-06
4	108258	53.71	4.36743e-06
4	108450	53.81	3.82346e-06
4	108651	53.91	3.30863e-06
4	108848	54.01	2.82695e-06
4	109049	54.11	2.3811e-06
4	109241	54.21	1.97264e-06
4	109439	54.31	1.60218e-06
4	109649	54.41	1.26953e-06
4	109844	54.51	9.7388e-07
4	110045	54.61	7.13874e-07
4	110246	54.71	4.87774e-07
4	110444	54.81	2.93545e-07
4	110621	54.91	1.28944e-07
4	110812	55.01	-8.3979e-09
4	111019	55.11	-1.20916e-07
4	111208	55.21	-2.11051e-07
4	111409	55.31	-2.81208e-07
4	111592	55.41	-3.33718e-07
4	111781	55.51	-3.70808e-07
4	111973	55.61	-3.94584e-07
4	112171	55.71	-4.07012e-07
4	112357	55.81	-4.09907e-07
4	112561	55.91	-4.0493e-07
4	112761	56.01	-3.93584e-07
4	112962	56.11	-3.77217e-07
4	113157	56.21	-3.57025e-07
4	113358	56.31	-3.34057e-07
4	113556	56.41	-3.09223e-07
4	113763	56.51	-2.83305e-07
4	113961	56.61	-2.56961e-07
4	114168	56.71	-2.30742e-07
4	114369	56.81	-2.05094e-07
4	114570	56.91	-1.80376e-07
4	114767	57.01	-1.56862e-07
4	114962	57.11	-1.3476e-07
4	115160	57.21	-1.14211e-07
4	115349	57.31	-9.53058e-08
4	115547	57.41	-7.80872e-08
4	115739	57.51	-6.25612e-08
4	115931	57.61	-4.87027e-08
4	116120	57.71	-3.64601e-08
4	116321	57.81	-2.57629e-08
4	116519	57.91	-1.65258e-08
4	116734	58.01	-8.65157e-09
4	116932	58.11	-2.03642e-09
4	117136	58.21	3.42624e-09
4	117331	58.31	7.84652e-09
4	117520	58.41	1.13317e-08
4	117724	58.51	1.39877e-08
4	117910	58.61	1.59162e-08
4	118099	58.71	1.72122e-08
4	118282	58.81	1.79668e-08
4	118477	58.91	1.82638e-08
4	118677	59.01	1.81792e-08
4	118872	59.11	1.77842e-08
4	119061	59.21	1.71411e-08
4	119262	59.31	1.63062e-08
4	119454	59.41	1.53285e-08
4	119661	59.51	1.42521e-08
4	119856	59.61	1.31131e-08
4	120057	59.71	1.19435e-08
4	120258	59.81	1.07697e-08
4	120444	59.91	9.61364e-09
4	120644	60.01	8.49312e-09
4	120839	60.11	7.42091e-09
4	121037	60.21	6.40838e-09
4	121238	60.31	5.46336e-09
4	121436	60.41	4.5894e-09
4	121613	60.51	3.79075e-09
4	121814	60.61	3.06741e-09
4	122015	60.71	2.41869e-09
4	122207	60.81	1.84315e-09
4	122405	60.91	1.33795e-09
4	122608	61.01	8.99547e-10
4	122803	61.11	5.2367e-10
4	123007	61.21	2.06057e-10
4	123196	61.31	-5.82645e-11
4	123397	61.41	-2.73559e-10
4	123595	61.51	-4.46221e-10
4	123796	61.61	-5.79092e-10
4	123979	61.71	-6.77858e-10
4	124174	61.81	-7.4678e-10
4	124384	61.91	-7.90124e-10
4	124578	62.01	-8.1144e-10
4	124770	62.11	-8.14282e-10
4	124965	62.21	-8.02203e-10
4	125154	62.31	-7.78044e-10
4	125349	62.41	-7.43938e-10
4	125541	62.51	-7.02727e-10
4	125739	62.61	-6.56541e-10
4	125940	62.71	-6.06803e-10
4	126123	62.81	-5.54934e-10
4	126312	62.91	-5.02354e-10
4	126521	63.01	-4.50484e-10
4	126707	63.11	-3.99325e-10
4	126902	63.21	-3.51008e-10
4	127100	63.31	-3.04823e-10
4	127301	63.41	-2.6148e-10
4	127496	63.51	-2.20979e-10
4	127679	63.61	-1.84031e-10
4	127880	63.71	-1.50635e-10
4	128081	63.81	-1.20792e-10
4	128279	63.91	-9.37916e-11
4	128473	64.01	-7.03437e-11
4	128659	64.11	-4.90274e-11
4	128854	64.21	-3.05533e-11
4	129043	64.31	-1.56319e-11
4	129235	64.41	-2.13163e-12
4	129424	64.51	8.52651e-12
4	129628	64.61	1.7053e-11
4	129823	64.71	2.41585e-11
4	130033	64.81	2.91323e-11
4	130234	64.91	3.33955e-11
4	130437	65.01	3.55271e-11
4	130629	65.11	3.69482e-11
4	130830	65.21	3.76588e-11
4	131016	65.31	3.76588e-11
4	131208	65.41	3.69482e-11
4	131406	65.51	3.55271e-11
4	131607	65.61	3.41061e-11
4	131802	65.71	3.19744e-11
4	131988	65.81	3.05533e-11
4	132195	65.91	2.84217e-11
4	132401	66.01	2.70006e-11
4	132584	66.11	2.4869e-11
4	132770	66.21	2.34479e-11
4	132965	66.31	2.13163e-11
4	133157	66.41	1.98952e-11
4	133352	66.51	1.77636e-11
4	133538	66.61	1.63425e-11
4	133733	66.71	1.42109e-11
4	133928	66.81	1.27898e-11
4	134117	66.91	1.06581e-11
4	134332	67.01	9.23706e-12
4	134515	67.11	7.10543e-12
4	134710	67.21	5.68434e-12
4	134887	67.31	3.55271e-12
4	135088	67.41	2.13163e-12
4	135295	67.51	0
4	135481	67.61	-1.42109e-12
4	135667	67.71	-2.84217e-12
4	135865	67.81	-4.26326e-12
4	136060	67.91	-5.68434e-12
4	136263	68.01	-7.10543e-12
4	136452	68.11	-7.81597e-12
4	136653	68.21	-8.52651e-12
4	136851	68.31	-9.9476e-12
4	137040	68.41	-1.06581e-11
4	137235	68.51	-1.13687e-11
4	137433	68.61	-1.20792e-11
4	137625	68.71	-1.20792e-11
4	137814	68.81	-1.27898e-11
4	138006	68.91	-1.35003e-11
4	138200	69.01	-1.35003e-11
4	138392	69.11	-1.42109e-11
4	138596	69.21	-1.42109e-11
4	138797	69.31	-1.49214e-11
4	138992	69.41	-1.49214e-11
4	139184	69.51	-1.56319e-11
4	139379	69.61	-1.56319e-11
4	139577	69.71	-1.56319e-11
4	139781	69.81	-1.63425e-11
4	139976	69.91	-1.63425e-11
4	140179	70.01	-1.63425e-11
4	140371	70.11	-1.63425e-11
4	140569	70.21	-1.63425e-11
4	140755	70.31	-1.63425e-11
4	140953	70.41	-1.7053e-11
4	141157	70.51	-1.7053e-11
4	141358	70.61	-1.7053e-11
4	141562	70.71	-1.7053e-11
4	141763	70.81	-1.7053e-11
4	141964	70.91	-1.7053e-11
4	142164	71.01	-1.7053e-11
4	142359	71.11	-1.7053e-11
4	142557	71.21	-1.7053e-11
4	142743	71.31	-1.77636e-11
4	142938	71.41	-1.77636e-11
4	143142	71.51	-1.77636e-11
4	143334	71.61	-1.77636e-11
4	143529	71.71	-1.77636e-11
4	143724	71.81	-1.77636e-11
4	143916	71.91	-1.77636e-11
4	144113	72.01	-1.77636e-11
4	144308	72.11	-1.77636e-11
4	144506	72.21	-1.77636e-11
4	144713	72.31	-1.77636e-11
4	144917	72.41	-1.77636e-11
4	145115	72.51	-1.77636e-11
4	145316	72.61	-1.77636e-11
4	145502	72.71	-1.77636e-11
4	145700	72.81	-1.77636e-11
4	145895	72.91	-1.77636e-11
4	146092	73.01	-1.77636e-11
4	146290	73.11	-1.77636e-11
4	146485	73.21	-1.77636e-11
4	146680	73.31	-1.77636e-11
4	146884	73.41	-1.77636e-11
4	147082	73.51	-1.77636e-11
4	147277	73.61	-1.77636e-11
4	147475	73.71	-1.77636e-11
4	147670	73.81	-1.77636e-11
4	147868	73.91	-1.77636e-11
4	148062	74.01	-1.77636e-11
4	148254	74.11	-1.77636e-11
4	148446	74.21	-1.77636e-11
4	148641	74.31	-1.77636e-11
4	148836	74.41	-1.77636e-11
4	149034	74.51	-1.77636e-11
4	149223	74.61	-1.77636e-11
4	149409	74.71	-1.77636e-11
4	149595	74.81	-1.77636e-11
4	149793	74.91	-1.77636e-11
4	149996	75.01	-1.77636e-11
4	150194	75.11	-1.77636e-11
4	150392	75.21	-1.77636e-11
4	150587	75.31	-1.77636e-11
4	150785	75.41	-1.77636e-11
4	150980	75.51	-1.77636e-11
4	151187	75.61	-1.77636e-11
4	151379	75.71	-1.77636e-11
4	151559	75.81	-1.77636e-11
4	151763	75.91	-1.77636e-11
4	151963	76.01	-1.77636e-11
4	152152	76.11	-1.77636e-11
4	152356	76.21	-1.77636e-11
4	152557	76.31	-1.77636e-11
4	152737	76.41	-1.77636e-11
4	152935	76.51	-1.77636e-11
4	153118	76.61	-1.77636e-11
4	153304	76.71	-1.77636e-11
4	153499	76.81	-1.77636e-11
4	153694	76.91	-1.77636e-11
4	153900	77.01	-1.77636e-11
4	154110	77.11	-1.77636e-11
4	154305	77.21	-1.77636e-11
4	154497	77.31	-1.77636e-11
4	154692	77.41	-1.77636e-11
4	154899	77.51	-1.77636e-11
4	155094	77.61	-1.77636e-11
4	155289	77.71	-1.77636e-11
4	155487	77.81	-1.77636e-11
4	155676	77.91	-1.77636e-11
4	155870	78.01	-1.77636e-11
4	156065	78.11	-1.77636e-11
4	156263	78.21	-1.77636e-11
4	156455	78.31	-1.77636e-11
4	156656	78.41	-1.77636e-11
4	156848	78.51	-1.77636e-11
4	157040	78.61	-1.77636e-11
4	157238	78.71	-1.77636e-11
4	157436	78.81	-1.77636e-11
4	157634	78.91	-1.77636e-11
4	157840	79.01	-1.77636e-11
4	158035	79.11	-1.77636e-11
4	158221	79.21	-1.77636e-11
4	158422	79.31	-1.77636e-11
4	158617	79.41	-1.77636e-11
4	158818	79.51	-1.77636e-11
4	159022	79.61	-1.77636e-11
4	159214	79.71	-1.77636e-11
4	159403	79.81	-1.77636e-11
4	159598	79.91	-1.77636e-11
4	159798	80.01	-1.77636e-11
4	160008	80.11	-1.77636e-11
4	160209	80.21	-1.77636e-11
4	160404	80.31	-1.77636e-11
4	160599	80.41	-1.77636e-11
4	160794	80.51	-1.77636e-11
4	160995	80.61	-1.77636e-11
4	161187	80.71	-1.77636e-11
4	161376	80.81	-1.77636e-11
4	161571	80.91	-1.77636e-11
4	161774	81.01	-1.77636e-11
4	161963	81.11	-1.77636e-11
4	162152	81.21	-1.77636e-11
4	162356	81.31	-1.77636e-11
4	162542	81.41	-1.77636e-11
4	162737	81.51	-1.77636e-11
4	162935	81.61	-1.77636e-11
4	163118	81.71	-1.77636e-11
4	163307	81.81	-1.77636e-11
4	163505	81.91	-1.77636e-11
4	163699	82.01	-1.77636e-11
4	163894	82.11	-1.77636e-11
4	164092	82.21	-1.77636e-11
4	164293	82.31	-1.77636e-11
4	164497	82.41	-1.77636e-11
4	164698	82.51	-1.77636e-11
4	164887	82.61	-1.77636e-11
4	165079	82.71	-1.77636e-11
4	165277	82.81	-1.77636e-11
4	165475	82.91	-1.77636e-11
4	165681	83.01	-1.77636e-11
4	165873	83.11	-1.77636e-11
4	166059	83.21	-1.77636e-11
4	166248	83.31	-1.77636e-11
4	166437	83.41	-1.77636e-11
4	166638	83.51	-1.77636e-11
4	166833	83.61	-1.77636e-11
4	167025	83.71	-1.77636e-11
4	167232	83.81	-1.77636e-11
4	167415	83.91	-1.77636e-11
4	167618	84.01	-1.77636e-11
4	167816	84.11	-1.77636e-11
4	168011	84.21	-1.77636e-11
4	168212	84.31	-1.77636e-11
4	168410	84.41	-1.77636e-11
4	168599	84.51	-1.77636e-11
4	168788	84.61	-1.77636e-11
4	168989	84.71	-1.77636e-11
4	169190	84.81	-1.77636e-11
4	169376	84.91	-1.77636e-11
4	169582	85.01	-1.77636e-11
4	169780	85.11	-1.77636e-11
4	169975	85.21	-1.77636e-11
4	170173	85.31	-1.77636e-11
4	170374	85.41	-1.77636e-11
4	170575	85.51	-1.77636e-11
4	170773	85.61	-1.77636e-11
4	170968	85.71	-1.77636e-11
4	171160	85.81	-1.77636e-11
4	171361	85.91	-1.77636e-11
4	171558	86.01	-1.77636e-11
4	171759	86.11	-1.77636e-11
4	171954	86.21	-1.77636e-11
4	172140	86.31	-1.77636e-11
4	172341	86.41	-1.77636e-11
4	172539	86.51	-1.77636e-11
4	172737	86.61	-1.77636e-11
4	172935	86.71	-1.77636e-11
4	173127	86.81	-1.77636e-11
4	173337	86.91	-1.77636e-11
4	173528	87.01	-1.77636e-11
4	173708	87.11	-1.77636e-11
4	173903	87.21	-1.77636e-11
4	174098	87.31	-1.77636e-11
4	174287	87.41	-1.77636e-11
4	174485	87.51	-1.77636e-11
4	174677	87.61	-1.77636e-11
4	174872	87.71	-1.77636e-11
4	175073	87.81	-1.77636e-11
4	175274	87.91	-1.77636e-11
4	175468	88.01	-1.77636e-11
4	175657	88.11	-1.77636e-11
4	175843	88.21	-1.77636e-11
4	176038	88.31	-1.77636e-11
4	176233	88.41	-1.77636e-11
4	176428	88.51	-1.77636e-11
4	176623	88.61	-1.77636e-11
4	176800	88.71	-1.77636e-11
4	176992	88.81	-1.77636e-11
4	177181	88.91	-1.77636e-11
4	177381	89.01	-1.77636e-11
4	177564	89.11	-1.77636e-11
4	177753	89.21	-1.77636e-11
4	177951	89.31	-1.77636e-11
4	178146	89.41	-1.77636e-11
4	178332	89.51	-1.77636e-11
4	178524	89.61	-1.77636e-11
4	178728	89.71	-1.77636e-11
4	178926	89.81	-1.77636e-11
4	179118	89.91	-1.77636e-11
3	113	1.11	-0.000358191
3	299	1.21	-0.000681704
3	506	1.31	-0.00093487
3	704	1.41	-0.00112579
3	899	1.51	-0.00126221
3	1094	1.61	-0.00135149
3	1292	1.71	-0.00140049
3	1484	1.81	-0.00141557
3	1673	1.91	-0.00140255
3	1873	2.01	-0.00136671
3	2068	2.11	-0.0013128
3	2263	2.21	-0.00124502
3	2452	2.31	-0.0011671
3	2641	2.41	-0.00108223
3	2836	2.51	-0.000993208
3	3025	2.61	-0.000902362
3	3232	2.71	-0.000811651
3	3427	2.81	-0.000722679
3	3616	2.91	-0.000636729
3	3804	3.01	-0.0005548
3	3981	3.11	-0.000477639
3	4170	3.21	-0.000405773
3	4362	3.31	-0.00033954
3	4566	3.41	-0.000279116
3	4764	3.51	-0.000224541
3	4965	3.61	-0.000175743
3	5163	3.71	-0.00013256
3	5358	3.81	-9.47571e-05
3	5553	3.91	-6.2046e-05
3	5750	4.01	-3.40986e-05
3	5939	4.11	-1.05605e-05
3	6134	4.21	8.93844e-06
3	6329	4.31	2.4774e-05
3	6509	4.41	3.73203e-05
3	6719	4.51	4.69433e-05
3	6908	4.61	5.39956e-05
3	7088	4.71	5.88124e-05
3	7304	4.81	6.1709e-05
3	7493	4.91	6.29785e-05
3	7708	5.01	6.28903e-05
3	7897	5.11	6.169e-05
3	8104	5.21	5.95988e-05
3	8296	5.31	5.68144e-05
3	8488	5.41	5.35112e-05
3	8686	5.51	4.98416e-05
3	8884	5.61	4.59373e-05
3	9073	5.71	4.19105e-05
3	9268	5.81	3.78555e-05
3	9466	5.91	3.38499e-05
3	9663	6.01	2.99569e-05
3	9858	6.11	2.62259e-05
3	10053	6.21	2.26948e-05
3	10257	6.31	1.93911e-05
3	10446	6.41	1.6333e-05
3	10641	6.51	1.35314e-05
3	10821	6.61	1.09904e-05
3	11019	6.71	8.70882e-06
3	11208	6.81	6.6809e-06
3	11403	6.91	4.89747e-06
3	11609	7.01	3.3466e-06
3	11819	7.11	2.01432e-06
3	12011	7.21	8.85256e-07
3	12203	7.31	-5.68459e-08
3	12383	7.41	-8.28678e-07
3	12584	7.51	-1.44699e-06
3	12779	7.61	-1.92826e-06
3	12968	7.71	-2.28849e-06
3	13163	7.81	-2.54296e-06
3	13346	7.91	-2.7061e-06
3	13540	8.01	-2.79139e-06
3	13735	8.11	-2.8113e-06
3	13939	8.21	-2.77721e-06
3	14137	8.31	-2.69943e-06
3	14335	8.41	-2.58721e-06
3	14542	8.51	-2.44874e-06
3	14743	8.61	-2.29123e-06
3	14941	8.71	-2.12092e-06
3	15130	8.81	-1.94317e-06
3	15316	8.91	-1.7625e-06
3	15510	9.01	-1.58267e-06
3	15711	9.11	-1.40677e-06
3	15906	9.21	-1.23723e-06
3	16110	9.31	-1.07596e-06
3	16314	9.41	-9.24364e-07
3	16506	9.51	-7.83424e-07
3	16692	9.61	-6.53753e-07
3	16884	9.71	-5.35652e-07
3	17085	9.81	-4.2916e-07
3	17280	9.91	-3.34103e-07
3	17480	10.01	-2.5013e-07
3	17672	10.11	-1.76757e-07
3	17867	10.21	-1.13395e-07
3	18083	10.31	-5.93825e-08
3	18281	10.41	-1.40084e-08
3	18473	10.51	2.34657e-08
3	18677	10.61	5.3787e-08
3	18869	10.71	7.76954e-08
3	19067	10.81	9.59155e-08
3	19265	10.91	1.09142e-07
3	19463	11.01	1.18035e-07
3	20872	11.11	1.23212e-07
3	21067	11.21	1.2525e-07
3	21250	11.31	1.24675e-07
3	21448	11.41	1.21968e-07
3	21628	11.51	1.17559e-07
3	21829	11.61	1.11834e-07
3	22039	11.71	1.05132e-07
3	22243	11.81	9.77476e-08
3	22429	11.91	8.99373e-08
3	22632	12.01	8.19171e-08
3	22830	12.11	7.38677e-08
3	23016	12.21	6.59401e-08
3	23208	12.31	5.82538e-08
3	23400	12.41	5.09036e-08
3	23601	12.51	4.39606e-08
3	23802	12.61	3.74765e-08
3	23997	12.71	3.14852e-08
3	24195	12.81	2.60055e-08
3	24405	12.91	2.10438e-08
3	24599	13.01	1.65958e-08
3	24788	13.11	1.26498e-08
3	24980	13.21	9.18554e-09
3	25169	13.31	6.17888e-09
3	25358	13.41	3.60174e-09
3	25562	13.51	1.42322e-09
3	25778	13.61	-3.90088e-10
3	25976	13.71	-1.8705e-09
3	26162	13.81	-3.05107e-09
3	26363	13.91	-3.96518e-09
3	26566	14.01	-4.64375e-09
3	26761	14.11	-5.11768e-09
3	27336	14.21	-5.41434e-09
3	27531	14.31	-5.56071e-09
3	27729	14.41	-5.58096e-09
3	27936	14.51	-5.49747e-09
3	28137	14.61	-5.33085e-09
3	28341	14.71	-5.09743e-09
3	28536	14.81	-4.81464e-09
3	28731	14.91	-4.49667e-09
3	28931	15.01	-4.15525e-09
3	29114	15.11	-3.80034e-09
3	29309	15.21	-3.44151e-09
3	29519	15.31	-3.08518e-09
3	29711	15.41	-2.73772e-09
3	29909	15.51	-2.40306e-09
3	30098	15.61	-2.08544e-09
3	30293	15.71	-1.78773e-09
3	30494	15.81	-1.51132e-09
3	30695	15.91	-1.25766e-09
3	30892	16.01	-1.02673e-09
3	31093	16.11	-8.18901e-10
3	31297	16.21	-6.33804e-10
3	31492	16.31	-4.70735e-10
3	31696	16.41	-3.28271e-10
3	31879	16.51	-2.05702e-10
3	32074	16.61	-1.00897e-10
3	32278	16.71	-1.35003e-11
3	33354	16.81	5.82645e-11
3	33549	16.91	1.16174e-10
3	33743	17.01	1.61648e-10
3	33932	17.11	1.95755e-10
3	34124	17.21	2.20624e-10
3	34316	17.31	2.36966e-10
3	34517	17.41	2.45848e-10
3	34721	17.51	2.4869e-10
3	34925	17.61	2.46914e-10
3	35123	17.71	2.40874e-10
3	35312	17.81	2.31282e-10
3	35516	17.91	2.19913e-10
3	35716	18.01	2.05702e-10
3	35908	18.11	1.91491e-10
3	36091	18.21	1.7657e-10
3	36283	18.31	1.59872e-10
3	36484	18.41	1.44595e-10
3	36682	18.51	1.30385e-10
3	36877	18.61	1.16174e-10
3	37078	18.71	1.01963e-10
3	37267	18.81	8.7752e-11
3	37471	18.91	7.35412e-11
3	37668	19.01	6.21725e-11
3	37869	19.11	5.15143e-11
3	38061	19.21	4.08562e-11
3	38253	19.31	3.16192e-11
3	38454	19.41	2.45137e-11
3	38658	19.51	1.74083e-11
3	38856	19.61	1.03029e-11
3	39045	19.71	6.03961e-12
3	39222	19.81	2.4869e-12
3	39423	19.91	-1.06581e-12
3	39626	20.01	-4.61853e-12
3	39824	20.11	-8.17124e-12
3	40010	20.21	-8.88178e-12
3	40205	20.31	-8.88178e-12
3	40397	20.41	-8.88178e-12
3	40589	20.51	-8.88178e-12
3	40793	20.61	-8.88178e-12
3	40982	20.71	-8.88178e-12
3	41177	20.81	-8.88178e-12
3	41366	20.91	-8.88178e-12
3	41572	21.01	-8.88178e-12
3	41767	21.11	-8.88178e-12
3	41962	21.21	-8.88178e-12
3	42169	21.31	-8.88178e-12
3	42379	21.41	-8.88178e-12
3	42565	21.51	-8.88178e-12
3	42772	21.61	-8.88178e-12
3	42976	21.71	-8.88178e-12
3	43180	21.81	-8.88178e-12
3	43369	21.91	-8.88178e-12
3	43566	22.01	-8.88178e-12
3	43764	22.11	-8.88178e-12
3	43953	22.21	-8.17124e-12
3	44157	22.31	-7.4607e-12
3	44343	22.41	-6.75016e-12
3	44538	22.51	-6.03961e-12
3	44736	22.61	-5.68434e-12
3	44940	22.71	-4.9738e-12
3	45135	22.81	-4.61853e-12
3	45315	22.91	-4.26326e-12
3	45524	23.01	-3.55271e-12
3	45719	23.11	-3.19744e-12
3	45902	23.21	-3.19744e-12
3	46103	23.31	-2.84217e-12
3	46298	23.41	-2.4869e-12
3	46493	23.51	-2.13163e-12
3	46700	23.61	-2.13163e-12
3	46886	23.71	-1.77636e-12
3	47081	23.81	-1.77636e-12
3	47273	23.91	-1.42109e-12
3	47470	24.01	-1.42109e-12
3	47659	24.11	-1.06581e-12
3	47851	24.21	-1.06581e-12
3	48052	24.31	-1.06581e-12
3	48235	24.41	-1.06581e-12
3	48424	24.51	-7.10543e-13
3	48622	24.61	-7.10543e-13
3	48820	24.71	-7.10543e-13
3	49721	24.81	-7.10543e-13
3	49919	24.91	-7.10543e-13
3	50122	25.01	-3.55271e-13
3	50317	25.11	-3.55271e-13
3	50512	25.21	-3.55271e-13
3	50707	25.31	-3.55271e-13
3	50893	25.41	-3.55271e-13
3	51085	25.51	-3.55271e-13
3	51286	25.61	-3.55271e-13
3	51490	25.71	-3.55271e-13
3	51691	25.81	-3.55271e-13
3	51886	25.91	-3.55271e-13
3	52083	26.01	0
3	52269	26.11	0
3	52461	26.21	0
3	52656	26.31	0
3	52851	26.41	0
3	53037	26.51	0
3	53226	26.61	0
3	53436	26.71	0
3	53628	26.81	0
3	53817	26.91	0
3	54014	27.01	0
3	54218	27.11	0
3	54410	27.21	0
3	54605	27.31	0
3	54791	27.41	0
3	54983	27.51	0
3	55181	27.61	0
3	55373	27.71	0
3	55574	27.81	0
3	55778	27.91	0
3	56430	28.01	0
3	56637	28.11	0
3	56829	28.21	0
3	57033	28.31	0
3	57222	28.41	0
3	57420	28.51	0
3	57621	28.61	0
3	57816	28.71	0
3	58014	28.81	0
3	58209	28.91	0
3	58418	29.01	0
3	58622	29.11	0
3	58823	29.21	0
3	59030	29.31	0
3	59222	29.41	0
3	59405	29.51	0
3	59585	29.61	0
3	59774	29.71	0
3	59966	29.81	0
3	60158	29.91	0
3	60364	30.01	0
3	60553	30.11	0
3	60754	30.21	0
3	60940	30.31	0
3	61129	30.41	0
3	61327	30.51	0
3	61510	30.61	0
3	61708	30.71	0
3	61900	30.81	0
3	62095	30.91	0
3	62277	31.01	0
3	62481	31.11	0
3	62676	31.21	0
3	62865	31.31	0
3	63072	31.41	0
3	63276	31.51	0
3	63465	31.61	0
3	63660	31.71	0
3	63858	31.81	0
3	64065	31.91	0
3	64262	32.01	0
3	64451	32.11	0
3	64631	32.21	0
3	64823	32.31	0
3	65027	32.41	0
3	65234	32.51	0
3	65432	32.61	0
3	65621	32.71	0
3	65807	32.81	0
3	66005	32.91	0
3	66205	33.01	0
3	66403	33.11	0
3	66589	33.21	0
3	66787	33.31	0
3	66982	33.41	0
3	67174	33.51	0
3	67369	33.61	0
3	67567	33.71	0
3	67765	33.81	0
3	67957	33.91	0
3	68157	34.01	0
3	68361	34.11	0
3	68556	34.21	0
3	68754	34.31	0
3	68958	34.41	0
3	69159	34.51	0
3	69354	34.61	0
3	69552	34.71	0
3	69741	34.81	0
3	69936	34.91	0
3	70139	35.01	0
3	70328	35.11	0
3	70523	35.21	0
3	70718	35.31	0
3	70919	35.41	0
3	71117	35.51	0
3	71315	35.61	0
3	71504	35.71	0
3	73251	35.81	0
3	73440	35.91	0.269478
3	73637	36.01	0.490543
3	73829	36.11	0.671894
3	74021	36.21	0.820664
3	74207	36.31	0.942708
3	74399	36.41	1.04283
3	74597	36.51	1.12496
3	74801	36.61	1.19234
3	74999	36.71	1.24761
3	75209	36.81	1.29295
3	75389	36.91	1.33015
3	75604	37.01	1.36066
3	75784	37.11	1.38569
3	75967	37.21	1.40623
3	76171	37.31	1.42308
3	76357	37.41	1.43689
3	76558	37.51	1.44823
3	76753	37.61	1.45753
3	76948	37.71	1.46516
3	77134	37.81	1.47142
3	77320	37.91	1.47655
3	77520	38.01	1.48077
3	77718	38.11	1.48422
3	77919	38.21	1.48706
3	78111	38.31	1.48938
3	78303	38.41	1.49129
3	78489	38.51	1.49285
3	78687	38.61	1.49414
3	78882	38.71	1.49519
3	79077	38.81	1.49606
3	79275	38.91	1.49676
3	79475	39.01	1.49735
3	79667	39.11	1.49782
3	79859	39.21	1.49821
3	80051	39.31	1.49853
3	80240	39.41	1.4988
3	80429	39.51	1.49901
3	80621	39.61	1.49919
3	80822	39.71	1.49934
3	81014	39.81	1.49946
3	81212	39.91	1.49955
3	81418	40.01	1.49963
3	81610	40.11	1.4997
3	81802	40.21	1.49975
3	81997	40.31	1.4998
3	82198	40.41	1.49983
3	82387	40.51	1.49986
3	82579	40.61	1.49989
3	82777	40.71	1.49991
3	82963	40.81	1.49992
3	83143	40.91	1.49768
3	83343	41.01	1.47363
3	83541	41.11	1.42746
3	83742	41.21	1.36399
3	83943	41.31	1.28745
3	84138	41.41	1.20158
3	84327	41.51	1.10958
3	84519	41.61	1.0142
3	84708	41.71	0.917772
3	84900	41.81	0.822204
3	85104	41.91	0.729059
3	85304	42.01	0.639571
3	85490	42.11	0.554688
3	85679	42.21	0.475106
3	85871	42.31	0.4013
3	86075	42.41	0.333555
3	86270	42.51	0.271998
3	86468	42.61	0.216622
3	86672	42.71	0.167308
3	86867	42.81	0.123853
3	87074	42.91	0.0859837
3	87286	43.01	0.0533752
3	87481	43.11	0.0256676
3	87688	43.21	0.00247733
3	87883	43.31	-0.0165912
3	88081	43.41	-0.0319365
3	88288	43.51	-0.0439521
3	88480	43.61	-0.0530208
3	88681	43.71	-0.0595093
3	88864	43.81	-0.0637648
3	89056	43.91	-0.0661122
3	89253	44.01	-0.066852
3	89439	44.11	-0.0662599
3	89631	44.21	-0.0645857
3	89829	44.31	-0.0620539
3	90021	44.41	-0.0588639
3	90210	44.51	-0.0551913
3	90402	44.61	-0.0511885
3	90591	44.71	-0.0469868
3	90786	44.81	-0.0426971
3	90987	44.91	-0.0384123
3	91199	45.01	-0.0342083
3	91394	45.11	-0.030146
3	91592	45.21	-0.0262728
3	91778	45.31	-0.0226242
3	91973	45.41	-0.0192253
3	92174	45.51	-0.0160922
3	92375	45.61	-0.0132333
3	92579	45.71	-0.0106507
3	92783	45.81	-0.00834102
3	92996	45.91	-0.00629668
3	93199	46.01	-0.00450667
3	93397	46.11	-0.00295741
3	93592	46.21	-0.00163344
3	93784	46.31	-0.000518016
3	93970	46.41	0.000406307
3	94165	46.51	0.00115729
3	94363	46.61	0.0017526
3	94546	46.71	0.00220952
3	94738	46.81	0.00254473
3	94927	46.91	0.00277408
3	95121	47.01	0.00291246
3	95316	47.11	0.00297375
3	95511	47.21	0.00297069
3	95706	47.31	0.0029149
3	95889	47.41	0.00281685
3	96087	47.51	0.0026859
3	96285	47.61	0.00253029
3	96468	47.71	0.00235726
3	96666	47.81	0.00217303
3	96870	47.91	0.00198293
3	97067	48.01	0.00179141
3	97262	48.11	0.00160217
3	97457	48.21	0.00141819
3	97649	48.31	0.00124182
3	97844	48.41	0.00107487
3	98039	48.51	0.00091863
3	98231	48.61	0.000773983
3	98432	48.71	0.000641441
3	98633	48.81	0.000521205
3	98834	48.91	0.000413221
3	99043	49.01	0.000317226
3	99253	49.11	0.000232786
3	99448	49.21	0.000159341
3	99634	49.31	9.62327e-05
3	99835	49.41	4.27357e-05
3	100027	49.51	-1.91688e-06
3	100219	49.61	-3.85132e-05
3	100411	49.71	-6.78442e-05
3	100597	49.81	-9.06889e-05
3	100795	49.91	-0.000107803
3	100983	50.01	-0.000119909
3	101187	50.11	-0.000127689
3	101391	50.21	-0.000131782
3	101589	50.31	-0.000132775
3	101778	50.41	-0.000131209
3	101976	50.51	-0.000127571
3	102171	50.61	-0.000122298
3	102375	50.71	-0.000115779
3	102570	50.81	-0.000108355
3	102753	50.91	-0.000100321
3	102953	51.01	-9.19305e-05
3	103139	51.11	-8.33988e-05
3	103340	51.21	-7.49041e-05
3	103547	51.31	-6.6592e-05
3	103739	51.41	-5.85787e-05
3	103934	51.51	-5.09545e-05
3	104144	51.61	-4.3786e-05
3	104327	51.71	-3.712e-05
3	104504	51.81	-3.09858e-05
3	104702	51.91	-2.53978e-05
3	104917	52.01	-2.03582e-05
3	105121	52.11	-1.58589e-05
3	105313	52.21	-1.18834e-05
3	105511	52.31	-8.40895e-06
3	105697	52.41	-5.40789e-06
3	105913	52.51	-2.84898e-06
3	106114	52.61	-6.9868e-07
3	106300	52.71	1.07784e-06
3	106501	52.81	2.51588e-06
3	106693	52.91	3.65044e-06
3	106884	53.01	4.51571e-06
3	107085	53.11	5.14454e-06
3	107280	53.21	5.56812e-06
3	107469	53.31	5.81574e-06
3	107667	53.41	5.91456e-06
3	107865	53.51	5.88955e-06
3	108060	53.61	5.76339e-06
3	108258	53.71	5.55653e-06
3	108450	53.81	5.28717e-06
3	108651	53.91	4.97137e-06
3	108848	54.01	4.62314e-06
3	109049	54.11	4.25455e-06
3	109241	54.21	3.87587e-06
3	109439	54.31	3.4957e-06
3	109649	54.41	3.12113e-06
3	109844	54.51	2.75788e-06
3	110045	54.61	2.41041e-06
3	110246	54.71	2.08214e-06
3	110444	54.81	1.7755e-06
3	110621	54.91	1.4921e-06
3	110812	55.01	1.23285e-06
3	111019	55.11	9.98065e-07
3	111208	55.21	7.87558e-07
3	111409	55.31	6.00742e-07
3	111592	55.41	4.36714e-07
3	111781	55.51	2.9432e-07
3	111973	55.61	1.7223e-07
3	112171	55.71	6.89838e-08
3	112357	55.81	-1.69514e-08
3	112561	55.91	-8.71445e-08
3	112761	56.01	-1.43164e-07
3	112962	56.11	-1.86552e-07
3	113157	56.21	-2.18799e-07
3	113358	56.31	-2.41329e-07
3	113556	56.41	-2.55481e-07
3	113763	56.51	-2.6251e-07
3	113961	56.61	-2.63568e-07
3	114168	56.71	-2.59708e-07
3	114369	56.81	-2.51884e-07
3	114570	56.91	-2.40946e-07
3	114767	57.01	-2.27654e-07
3	114962	57.11	-2.12666e-07
3	115160	57.21	-1.96556e-07
3	115349	57.31	-1.79814e-07
3	115547	57.41	-1.62856e-07
3	115739	57.51	-1.46022e-07
3	115931	57.61	-1.29594e-07
3	116120	57.71	-1.13793e-07
3	116321	57.81	-9.87903e-08
3	116519	57.91	-8.47116e-08
3	116734	58.01	-7.16412e-08
3	116932	58.11	-5.96337e-08
3	117136	58.21	-4.87141e-08
3	117331	58.31	-3.8883e-08
3	117520	58.41	-3.01213e-08
3	117724	58.51	-2.23928e-08
3	117910	58.61	-1.56504e-08
3	118099	58.71	-9.8396e-09
3	118282	58.81	-4.89564e-09
3	118477	58.91	-7.52465e-10
3	118677	59.01	2.66098e-09
3	118872	59.11	5.4122e-09
3	119061	59.21	7.57368e-09
3	119262	59.31	9.20934e-09
3	119454	59.41	1.0386e-08
3	119661	59.51	1.11669e-08
3	119856	59.61	1.1606e-08
3	120057	59.71	1.17581e-08
3	120258	59.81	1.16714e-08
3	120444	59.91	1.13914e-08
3	120644	60.01	1.09587e-08
3	120839	60.11	1.04059e-08
3	121037	60.21	9.76499e-09
3	121238	60.31	9.0651e-09
3	121436	60.41	8.32827e-09
3	121613	60.51	7.5751e-09
3	121814	60.61	6.82121e-09
3	122015	60.71	6.08011e-09
3	122207	60.81	5.36247e-09
3	122405	60.91	4.67679e-09
3	122608	61.01	4.03162e-09
3	122803	61.11	3.42979e-09
3	123007	61.21	2.87557e-09
3	123196	61.31	2.36895e-09
3	123397	61.41	1.90994e-09
3	123595	61.51	1.49996e-09
3	123796	61.61	1.13616e-09
3	123979	61.71	8.17124e-10
3	124174	61.81	5.41434e-10
3	124384	61.91	3.05533e-10
3	124578	62.01	1.06581e-10
3	124770	62.11	-5.8975e-11
3	124965	62.21	-1.93978e-10
3	125154	62.31	-3.0056e-10
3	125349	62.41	-3.82272e-10
3	125541	62.51	-4.43379e-10
3	125739	62.61	-4.86011e-10
3	125940	62.71	-5.11591e-10
3	126123	62.81	-5.22959e-10
3	126312	62.91	-5.2367e-10
3	126521	63.01	-5.14433e-10
3	126707	63.11	-4.9738e-10
3	126902	63.21	-4.75353e-10
3	127100	63.31	-4.46931e-10
3	127301	63.41	-4.1851e-10
3	127496	63.51	-3.84404e-10
3	127679	63.61	-3.48876e-10
3	127880	63.71	-3.13349e-10
3	128081	63.81	-2.80664e-10
3	128279	63.91	-2.52243e-10
3	128473	64.01	-2.23821e-10
3	128659	64.11	-1.95399e-10
3	128854	64.21	-1.66978e-10
3	129043	64.31	-1.39266e-10
3	129235	64.41	-1.1795e-10
3	129424	64.51	-9.66338e-11
3	129628	64.61	-7.53175e-11
3	129823	64.71	-5.96856e-11
3	130033	64.81	-4.54747e-11
3	130234	64.91	-3.12639e-11
3	130437	65.01	-1.77636e-11
3	130629	65.11	-1.06581e-11
3	130830	65.21	-3.55271e-12
3	131016	65.31	3.55271e-12
3	131208	65.41	1.06581e-11
3	131406	65.51	1.77636e-11
3	131607	65.61	1.77636e-11
3	131802	65.71	1.77636e-11
3	131988	65.81	1.77636e-11
3	132195	65.91	1.77636e-11
3	132401	66.01	1.77636e-11
3	132584	66.11	1.77636e-11
3	132770	66.21	1.77636e-11
3	132965	66.31	1.77636e-11
3	133157	66.41	1.77636e-11
3	133352	66.51	1.77636e-11
3	133538	66.61	1.77636e-11
3	133733	66.71	1.77636e-11
3	133928	66.81	1.77636e-11
3	134117	66.91	1.77636e-11
3	134332	67.01	1.77636e-11
3	134515	67.11	1.77636e-11
3	134710	67.21	1.77636e-11
3	134887	67.31	1.77636e-11
3	135088	67.41	1.77636e-11
3	135295	67.51	1.77636e-11
3	135481	67.61	1.63425e-11
3	135667	67.71	1.49214e-11
3	135865	67.81	1.35003e-11
3	136060	67.91	1.20792e-11
3	136263	68.01	1.06581e-11
3	136452	68.11	9.9476e-12
3	136653	68.21	9.23706e-12
3	136851	68.31	7.81597e-12
3	137040	68.41	7.10543e-12
3	137235	68.51	6.39488e-12
3	137433	68.61	5.68434e-12
3	137625	68.71	5.68434e-12
3	137814	68.81	4.9738e-12
3	138006	68.91	4.26326e-12
3	138200	69.01	4.26326e-12
3	138392	69.11	3.55271e-12
3	138596	69.21	3.55271e-12
3	138797	69.31	2.84217e-12
3	138992	69.41	2.84217e-12
3	139184	69.51	2.13163e-12
3	139379	69.61	2.13163e-12
3	139577	69.71	2.13163e-12
3	139781	69.81	1.42109e-12
3	139976	69.91	1.42109e-12
3	140179	70.01	1.42109e-12
3	140371	70.11	1.42109e-12
3	140569	70.21	1.42109e-12
3	140755	70.31	1.42109e-12
3	140953	70.41	7.10543e-13
3	141157	70.51	7.10543e-13
3	141358	70.61	7.10543e-13
3	141562	70.71	7.10543e-13
3	141763	70.81	7.10543e-13
3	141964	70.91	7.10543e-13
3	142164	71.01	7.10543e-13
3	142359	71.11	7.10543e-13
3	142557	71.21	7.10543e-13
3	142743	71.31	0
3	142938	71.41	0
3	143142	71.51	0
3	143334	71.61	0
3	143529	71.71	0
3	143724	71.81	0
3	143916	71.91	0
3	144113	72.01	0
3	144308	72.11	0
3	144506	72.21	0
3	144713	72.31	0
3	144917	72.41	0
3	145115	72.51	0
3	145316	72.61	0
3	145502	72.71	0
3	145700	72.81	0
3	145895	72.91	0
3	146092	73.01	0
3	146290	73.11	0
3	146485	73.21	0
3	146680	73.31	0
3	146884	73.41	0
3	147082	73.51	0
3	147277	73.61	0
3	147475	73.71	0
3	147670	73.81	0
3	147868	73.91	0
3	148062	74.01	0
3	148254	74.11	0
3	148446	74.21	0
3	148641	74.31	0
3	148836	74.41	0
3	149034	74.51	0
3	149223	74.61	0
3	149409	74.71	0
3	149595	74.81	0
3	149793	74.91	0
3	149996	75.01	0
3	150194	75.11	0
3	150392	75.21	0
3	150587	75.31	0
3	150785	75.41	0
3	150980	75.51	0
3	151187	75.61	0
3	151379	75.71	0
3	151559	75.81	0
3	151763	75.91	0
3	151963	76.01	0
3	152152	76.11	0
3	152356	76.21	0
3	152557	76.31	0
3	152737	76.41	0
3	152935	76.51	0
3	153118	76.61	0
3	153304	76.71	0
3	153499	76.81	0
3	153694	76.91	0
3	153900	77.01	0
3	154110	77.11	0
3	154305	77.21	0
3	154497	77.31	0
3	154692	77.41	0
3	154899	77.51	0
3	155094	77.61	0
3	155289	77.71	0
3	155487	77.81	0
3	155676	77.91	0
3	155870	78.01	0
3	156065	78.11	0
3	156263	78.21	0
3	156455	78.31	0
3	156656	78.41	0
3	156848	78.51	0
3	157040	78.61	0
3	157238	78.71	0
3	157436	78.81	0
3	157634	78.91	0
3	157840	79.01	0
3	158035	79.11	0
3	158221	79.21	0
3	158422	79.31	0
3	158617	79.41	0
3	158818	79.51	0
3	159022	79.61	0
3	159214	79.71	0
3	159403	79.81	0
3	159598	79.91	0
3	159798	80.01	0
3	160008	80.11	0
3	160209	80.21	0
3	160404	80.31	0
3	160599	80.41	0
3	160794	80.51	0
3	160995	80.61	0
3	161187	80.71	0
3	161376	80.81	0
3	161571	80.91	0
3	161774	81.01	0
3	161963	81.11	0
3	162152	81.21	0
3	162356	81.31	0
3	162542	81.41	0
3	162737	81.51	0
3	162935	81.61	0
3	163118	81.71	0
3	163307	81.81	0
3	163505	81.91	0
3	163699	82.01	0
3	163894	82.11	0
3	164092	82.21	0
3	164293	82.31	0
3	164497	82.41	0
3	164698	82.51	0
3	164887	82.61	0
3	165079	82.71	0
3	165277	82.81	0
3	165475	82.91	0
3	165681	83.01	0
3	165873	83.11	0
3	166059	83.21	0
3	166248	83.31	0
3	166437	83.41	0
3	166638	83.51	0
3	166833	83.61	0
3	167025	83.71	0
3	167232	83.81	0
3	167415	83.91	0
3	167618	84.01	0
3	167816	84.11	0
3	168011	84.21	0
3	168212	84.31	0
3	168410	84.41	0
3	168599	84.51	0
3	168788	84.61	0
3	168989	84.71	0
3	169190	84.81	0
3	169376	84.91	0
3	169582	85.01	0
3	169780	85.11	0
3	169975	85.21	0
3	170173	85.31	0
3	170374	85.41	0
3	170575	85.51	0
3	170773	85.61	0
3	170968	85.71	0
3	171160	85.81	0
3	171361	85.91	0
3	171558	86.01	0
3	171759	86.11	0
3	171954	86.21	0
3	172140	86.31	0
3	172341	86.41	0
3	172539	86.51	0
3	172737	86.61	0
3	172935	86.71	0
3	173127	86.81	0
3	173337	86.91	0
3	173528	87.01	0
3	173708	87.11	0
3	173903	87.21	0
3	174098	87.31	0
3	174287	87.41	0
3	174485	87.51	0
3	174677	87.61	0
3	174872	87.71	0
3	175073	87.81	0
3	175274	87.91	0
3	175468	88.01	0
3	175657	88.11	0
3	175843	88.21	0
3	176038	88.31	0
3	176233	88.41	0
3	176428	88.51	0
3	176623	88.61	0
3	176800	88.71	0
3	176992	88.81	0
3	177181	88.91	0
3	177381	89.01	0
3	177564	89.11	0
3	177753	89.21	0
3	177951	89.31	0
3	178146	89.41	0
3	178332	89.51	0
3	178524	89.61	0
3	178728	89.71	0
3	178926	89.81	0
3	179118	89.91	0
7	113	1.11	242.45
7	299	1.21	242.45
7	506	1.31	242.45
7	704	1.41	242.45
7	899	1.51	242.45
7	1094	1.61	242.45
7	1292	1.71	242.45
7	1484	1.81	242.45
7	1673	1.91	242.45
7	1873	2.01	242.45
7	2068	2.11	242.45
7	2263	2.21	242.45
7	2452	2.31	242.45
7	2641	2.41	242.45
7	2836	2.51	242.45
7	3025	2.61	242.45
7	3232	2.71	242.45
7	3427	2.81	242.45
7	3616	2.91	242.45
7	3804	3.01	242.45
7	3981	3.11	242.45
7	4170	3.21	242.45
7	4362	3.31	242.45
7	4566	3.41	242.45
7	4764	3.51	242.45
7	4965	3.61	242.45
7	5163	3.71	242.45
7	5358	3.81	242.45
7	5553	3.91	242.45
7	5750	4.01	242.45
7	5939	4.11	242.45
7	6134	4.21	242.45
7	6329	4.31	242.45
7	6509	4.41	242.45
7	6719	4.51	242.45
7	6908	4.61	242.45
7	7088	4.71	242.45
7	7304	4.81	242.45
7	7493	4.91	242.45
7	7708	5.01	242.45
7	7897	5.11	242.45
7	8104	5.21	242.45
7	8296	5.31	242.45
7	8488	5.41	242.45
7	8686	5.51	242.45
7	8884	5.61	242.45
7	9073	5.71	242.45
7	9268	5.81	242.45
7	9466	5.91	242.45
7	9663	6.01	242.45
7	9858	6.11	242.45
7	10053	6.21	242.45
7	10257	6.31	242.45
7	10446	6.41	242.45
7	10641	6.51	242.45
7	10821	6.61	242.45
7	11019	6.71	242.45
7	11208	6.81	242.45
7	11403	6.91	242.45
7	11609	7.01	242.45
7	11819	7.11	242.45
7	12011	7.21	242.45
7	12203	7.31	242.45
7	12383	7.41	242.45
7	12584	7.51	242.45
7	12779	7.61	242.45
7	12968	7.71	242.45
7	13163	7.81	242.45
7	13346	7.91	242.45
7	13540	8.01	242.45
7	13735	8.11	242.45
7	13939	8.21	242.45
7	14137	8.31	242.45
7	14335	8.41	242.45
7	14542	8.51	242.45
7	14743	8.61	242.45
7	14941	8.71	242.45
7	15130	8.81	242.45
7	15316	8.91	242.45
7	15510	9.01	242.45
7	15711	9.11	242.45
7	15906	9.21	242.45
7	16110	9.31	242.45
7	16314	9.41	242.45
7	16506	9.51	242.45
7	16692	9.61	242.45
7	16884	9.71	242.45
7	17085	9.81	242.45
7	17280	9.91	242.45
7	17480	10.01	242.45
7	17672	10.11	242.45
7	17867	10.21	242.45
7	18083	10.31	242.45
7	18281	10.41	242.45
7	18473	10.51	242.45
7	18677	10.61	242.45
7	18869	10.71	242.45
7	19067	10.81	242.45
7	19265	10.91	242.45
7	19463	11.01	242.45
7	20872	11.11	242.45
7	21067	11.21	242.45
7	21250	11.31	242.45
7	21448	11.41	242.45
7	21628	11.51	242.45
7	21829	11.61	242.45
7	22039	11.71	242.45
7	22243	11.81	242.45
7	22429	11.91	242.45
7	22632	12.01	242.45
7	22830	12.11	242.45
7	23016	12.21	242.45
7	23208	12.31	242.45
7	23400	12.41	242.45
7	23601	12.51	242.45
7	23802	12.61	242.45
7	23997	12.71	242.45
7	24195	12.81	242.45
7	24405	12.91	242.45
7	24599	13.01	242.45
7	24788	13.11	242.45
7	24980	13.21	242.45
7	25169	13.31	242.45
7	25358	13.41	242.45
7	25562	13.51	242.45
7	25778	13.61	242.45
7	25976	13.71	242.45
7	26162	13.81	242.45
7	26363	13.91	242.45
7	26566	14.01	242.45
7	26761	14.11	242.45
7	27336	14.21	242.45
7	27531	14.31	242.45
7	27729	14.41	242.45
7	27936	14.51	242.45
7	28137	14.61	242.45
7	28341	14.71	242.45
7	28536	14.81	242.45
7	28731	14.91	242.45
7	28931	15.01	242.45
7	29114	15.11	242.45
7	29309	15.21	242.45
7	29519	15.31	242.45
7	29711	15.41	242.45
7	29909	15.51	242.45
7	30098	15.61	242.45
7	30293	15.71	242.45
7	30494	15.81	242.45
7	30695	15.91	242.45
7	30892	16.01	242.45
7	31093	16.11	242.45
7	31297	16.21	242.45
7	31492	16.31	242.45
7	31696	16.41	242.45
7	31879	16.51	242.45
7	32074	16.61	242.45
7	32278	16.71	242.45
7	33354	16.81	242.45
7	33549	16.91	242.45
7	33743	17.01	242.45
7	33932	17.11	242.45
7	34124	17.21	242.45
7	34316	17.31	242.45
7	34517	17.41	242.45
7	34721	17.51	242.45
7	34925	17.61	242.45
7	35123	17.71	242.45
7	35312	17.81	242.45
7	35516	17.91	242.45
7	35716	18.01	242.45
7	35908	18.11	242.45
7	36091	18.21	242.45
7	36283	18.31	242.45
7	36484	18.41	242.45
7	36682	18.51	242.45
7	36877	18.61	242.45
7	37078	18.71	242.45
7	37267	18.81	242.45
7	37471	18.91	242.45
7	37668	19.01	242.45
7	37869	19.11	242.45
7	38061	19.21	242.45
7	38253	19.31	242.45
7	38454	19.41	242.45
7	38658	19.51	242.45
7	38856	19.61	242.45
7	39045	19.71	242.45
7	39222	19.81	242.45
7	39423	19.91	242.45
7	39626	20.01	242.45
7	39824	20.11	242.45
7	40010	20.21	242.45
7	40205	20.31	242.45
7	40397	20.41	242.45
7	40589	20.51	242.45
7	40793	20.61	242.45
7	40982	20.71	242.45
7	41177	20.81	242.45
7	41366	20.91	242.45
7	41572	21.01	242.45
7	41767	21.11	242.45
7	41962	21.21	242.45
7	42169	21.31	242.45
7	42379	21.41	242.45
7	42565	21.51	242.45
7	42772	21.61	242.45
7	42976	21.71	242.45
7	43180	21.81	242.45
7	43369	21.91	242.45
7	43566	22.01	242.45
7	43764	22.11	242.45
7	43953	22.21	242.45
7	44157	22.31	242.45
7	44343	22.41	242.45
7	44538	22.51	242.45
7	44736	22.61	242.45
7	44940	22.71	242.45
7	45135	22.81	242.45
7	45315	22.91	242.45
7	45524	23.01	242.45
7	45719	23.11	242.45
7	45902	23.21	242.45
7	46103	23.31	242.45
7	46298	23.41	242.45
7	46493	23.51	242.45
7	46700	23.61	242.45
7	46886	23.71	242.45
7	47081	23.81	242.45
7	47273	23.91	242.45
7	47470	24.01	242.45
7	47659	24.11	242.45
7	47851	24.21	242.45
7	48052	24.31	242.45
7	48235	24.41	242.45
7	48424	24.51	242.45
7	48622	24.61	242.45
7	48820	24.71	242.45
7	49721	24.81	242.45
7	49919	24.91	242.45
7	50122	25.01	242.45
7	50317	25.11	242.45
7	50512	25.21	242.45
7	50707	25.31	242.45
7	50893	25.41	242.45
7	51085	25.51	242.45
7	51286	25.61	242.45
7	51490	25.71	242.45
7	51691	25.81	242.45
7	51886	25.91	242.45
7	52083	26.01	242.45
7	52269	26.11	242.45
7	52461	26.21	242.45
7	52656	26.31	242.45
7	52851	26.41	242.45
7	53037	26.51	242.45
7	53226	26.61	242.45
7	53436	26.71	242.45
7	53628	26.81	242.45
7	53817	26.91	242.45
7	54014	27.01	242.45
7	54218	27.11	242.45
7	54410	27.21	242.45
7	54605	27.31	242.45
7	54791	27.41	242.45
7	54983	27.51	242.45
7	55181	27.61	242.45
7	55373	27.71	242.45
7	55574	27.81	242.45
7	55778	27.91	242.45
7	56430	28.01	242.45
7	56637	28.11	242.45
7	56829	28.21	242.45
7	57033	28.31	242.45
7	57222	28.41	242.45
7	57420	28.51	242.45
7	57621	28.61	242.45
7	57816	28.71	242.45
7	58014	28.81	242.45
7	58209	28.91	242.45
7	58418	29.01	242.45
7	58622	29.11	242.45
7	58823	29.21	242.45
7	59030	29.31	242.45
7	59222	29.41	242.45
7	59405	29.51	242.45
7	59585	29.61	242.45
7	59774	29.71	242.45
7	59966	29.81	242.45
7	60158	29.91	242.45
7	60364	30.01	242.45
7	60553	30.11	242.45
7	60754	30.21	242.45
7	60940	30.31	242.45
7	61129	30.41	242.45
7	61327	30.51	242.45
7	61510	30.61	242.45
7	61708	30.71	242.45
7	61900	30.81	242.45
7	62095	30.91	242.45
7	62277	31.01	242.45
7	62481	31.11	242.45
7	62676	31.21	242.45
7	62865	31.31	242.45
7	63072	31.41	242.45
7	63276	31.51	242.45
7	63465	31.61	242.45
7	63660	31.71	242.45
7	63858	31.81	242.45
7	64065	31.91	242.45
7	64262	32.01	242.45
7	64451	32.11	242.45
7	64631	32.21	242.45
7	64823	32.31	242.45
7	65027	32.41	242.45
7	65234	32.51	242.45
7	65432	32.61	242.45
7	65621	32.71	242.45
7	65807	32.81	242.45
7	66005	32.91	242.45
7	66205	33.01	242.45
7	66403	33.11	242.45
7	66589	33.21	242.45
7	66787	33.31	242.45
7	66982	33.41	242.45
7	67174	33.51	242.45
7	67369	33.61	242.45
7	67567	33.71	242.45
7	67765	33.81	242.45
7	67957	33.91	242.45
7	68157	34.01	242.45
7	68361	34.11	242.45
7	68556	34.21	242.45
7	68754	34.31	242.45
7	68958	34.41	242.45
7	69159	34.51	242.45
7	69354	34.61	242.45
7	69552	34.71	242.45
7	69741	34.81	242.45
7	69936	34.91	242.45
7	70139	35.01	242.45
7	70328	35.11	242.45
7	70523	35.21	242.45
7	70718	35.31	242.45
7	70919	35.41	242.45
7	71117	35.51	242.45
7	71315	35.61	242.45
7	71504	35.71	242.45
7	73251	35.81	242.45
7	73440	35.91	245.75
7	73637	36.01	245.75
7	73829	36.11	245.75
7	74021	36.21	245.75
7	74207	36.31	245.75
7	74399	36.41	245.75
7	74597	36.51	245.75
7	74801	36.61	245.75
7	74999	36.71	245.75
7	75209	36.81	245.75
7	75389	36.91	245.75
7	75604	37.01	245.75
7	75784	37.11	245.75
7	75967	37.21	245.75
7	76171	37.31	245.75
7	76357	37.41	245.75
7	76558	37.51	245.75
7	76753	37.61	245.75
7	76948	37.71	245.75
7	77134	37.81	245.75
7	77320	37.91	245.75
7	77520	38.01	245.75
7	77718	38.11	245.75
7	77919	38.21	245.75
7	78111	38.31	245.75
7	78303	38.41	245.75
7	78489	38.51	245.75
7	78687	38.61	245.75
7	78882	38.71	245.75
7	79077	38.81	245.75
7	79275	38.91	245.75
7	79475	39.01	245.75
7	79667	39.11	245.75
7	79859	39.21	245.75
7	80051	39.31	245.75
7	80240	39.41	245.75
7	80429	39.51	245.75
7	80621	39.61	245.75
7	80822	39.71	245.75
7	81014	39.81	245.75
7	81212	39.91	245.75
7	81418	40.01	245.75
7	81610	40.11	245.75
7	81802	40.21	245.75
7	81997	40.31	245.75
7	82198	40.41	245.75
7	82387	40.51	245.75
7	82579	40.61	245.75
7	82777	40.71	245.75
7	82963	40.81	245.75
7	83143	40.91	245.75
7	83343	41.01	245.75
7	83541	41.11	245.75
7	83742	41.21	245.75
7	83943	41.31	245.75
7	84138	41.41	245.75
7	84327	41.51	245.75
7	84519	41.61	245.75
7	84708	41.71	245.75
7	84900	41.81	245.75
7	85104	41.91	245.75
7	85304	42.01	245.75
7	85490	42.11	245.75
7	85679	42.21	245.75
7	85871	42.31	245.75
7	86075	42.41	245.75
7	86270	42.51	245.75
7	86468	42.61	245.75
7	86672	42.71	245.75
7	86867	42.81	245.75
7	87074	42.91	245.75
7	87286	43.01	245.75
7	87481	43.11	245.75
7	87688	43.21	245.75
7	87883	43.31	245.75
7	88081	43.41	245.75
7	88288	43.51	245.75
7	88480	43.61	245.75
7	88681	43.71	245.75
7	88864	43.81	245.75
7	89056	43.91	245.75
7	89253	44.01	245.75
7	89439	44.11	245.75
7	89631	44.21	245.75
7	89829	44.31	245.75
7	90021	44.41	245.75
7	90210	44.51	245.75
7	90402	44.61	245.75
7	90591	44.71	245.75
7	90786	44.81	245.75
7	90987	44.91	245.75
7	91199	45.01	245.75
7	91394	45.11	245.75
7	91592	45.21	245.75
7	91778	45.31	245.75
7	91973	45.41	245.75
7	92174	45.51	245.75
7	92375	45.61	245.75
7	92579	45.71	245.75
7	92783	45.81	245.75
7	92996	45.91	245.75
7	93199	46.01	245.75
7	93397	46.11	245.75
7	93592	46.21	245.75
7	93784	46.31	245.75
7	93970	46.41	245.75
7	94165	46.51	245.75
7	94363	46.61	245.75
7	94546	46.71	245.75
7	94738	46.81	245.75
7	94927	46.91	245.75
7	95121	47.01	245.75
7	95316	47.11	245.75
7	95511	47.21	245.75
7	95706	47.31	245.75
7	95889	47.41	245.75
7	96087	47.51	245.75
7	96285	47.61	245.75
7	96468	47.71	245.75
7	96666	47.81	245.75
7	96870	47.91	245.75
7	97067	48.01	245.75
7	97262	48.11	245.75
7	97457	48.21	245.75
7	97649	48.31	245.75
7	97844	48.41	245.75
7	98039	48.51	245.75
7	98231	48.61	245.75
7	98432	48.71	245.75
7	98633	48.81	245.75
7	98834	48.91	245.75
7	99043	49.01	245.75
7	99253	49.11	245.75
7	99448	49.21	245.75
7	99634	49.31	245.75
7	99835	49.41	245.75
7	100027	49.51	245.75
7	100219	49.61	245.75
7	100411	49.71	245.75
7	100597	49.81	245.75
7	100795	49.91	245.75
7	100983	50.01	245.75
7	101187	50.11	245.75
7	101391	50.21	245.75
7	101589	50.31	245.75
7	101778	50.41	245.75
7	101976	50.51	245.75
7	102171	50.61	245.75
7	102375	50.71	245.75
7	102570	50.81	245.75
7	102753	50.91	245.75
7	102953	51.01	245.75
7	103139	51.11	245.75
7	103340	51.21	245.75
7	103547	51.31	245.75
7	103739	51.41	245.75
7	103934	51.51	245.75
7	104144	51.61	245.75
7	104327	51.71	245.75
7	104504	51.81	245.75
7	104702	51.91	245.75
7	104917	52.01	245.75
7	105121	52.11	245.75
7	105313	52.21	245.75
7	105511	52.31	245.75
7	105697	52.41	245.75
7	105913	52.51	245.75
7	106114	52.61	245.75
7	106300	52.71	245.75
7	106501	52.81	245.75
7	106693	52.91	245.75
7	106884	53.01	245.75
7	107085	53.11	245.75
7	107280	53.21	245.75
7	107469	53.31	245.75
7	107667	53.41	245.75
7	107865	53.51	245.75
7	108060	53.61	245.75
7	108258	53.71	245.75
7	108450	53.81	245.75
7	108651	53.91	245.75
7	108848	54.01	245.75
7	109049	54.11	245.75
7	109241	54.21	245.75
7	109439	54.31	245.75
7	109649	54.41	245.75
7	109844	54.51	245.75
7	110045	54.61	245.75
7	110246	54.71	245.75
7	110444	54.81	245.75
7	110621	54.91	245.75
7	110812	55.01	245.75
7	111019	55.11	245.75
7	111208	55.21	245.75
7	111409	55.31	245.75
7	111592	55.41	245.75
7	111781	55.51	245.75
7	111973	55.61	245.75
7	112171	55.71	245.75
7	112357	55.81	245.75
7	112561	55.91	245.75
7	112761	56.01	245.75
7	112962	56.11	245.75
7	113157	56.21	245.75
7	113358	56.31	245.75
7	113556	56.41	245.75
7	113763	56.51	245.75
7	113961	56.61	245.75
7	114168	56.71	245.75
7	114369	56.81	245.75
7	114570	56.91	245.75
7	114767	57.01	245.75
7	114962	57.11	245.75
7	115160	57.21	245.75
7	115349	57.31	245.75
7	115547	57.41	245.75
7	115739	57.51	245.75
7	115931	57.61	245.75
7	116120	57.71	245.75
7	116321	57.81	245.75
7	116519	57.91	245.75
7	116734	58.01	245.75
7	116932	58.11	245.75
7	117136	58.21	245.75
7	117331	58.31	245.75
7	117520	58.41	245.75
7	117724	58.51	245.75
7	117910	58.61	245.75
7	118099	58.71	245.75
7	118282	58.81	245.75
7	118477	58.91	245.75
7	118677	59.01	245.75
7	118872	59.11	245.75
7	119061	59.21	245.75
7	119262	59.31	245.75
7	119454	59.41	245.75
7	119661	59.51	245.75
7	119856	59.61	245.75
7	120057	59.71	245.75
7	120258	59.81	245.75
7	120444	59.91	245.75
7	120644	60.01	245.75
7	120839	60.11	245.75
7	121037	60.21	245.75
7	121238	60.31	245.75
7	121436	60.41	245.75
7	121613	60.51	245.75
7	121814	60.61	245.75
7	122015	60.71	245.75
7	122207	60.81	245.75
7	122405	60.91	245.75
7	122608	61.01	245.75
7	122803	61.11	245.75
7	123007	61.21	245.75
7	123196	61.31	245.75
7	123397	61.41	245.75
7	123595	61.51	245.75
7	123796	61.61	245.75
7	123979	61.71	245.75
7	124174	61.81	245.75
7	124384	61.91	245.75
7	124578	62.01	245.75
7	124770	62.11	245.75
7	124965	62.21	245.75
7	125154	62.31	245.75
7	125349	62.41	245.75
7	125541	62.51	245.75
7	125739	62.61	245.75
7	125940	62.71	245.75
7	126123	62.81	245.75
7	126312	62.91	245.75
7	126521	63.01	245.75
7	126707	63.11	245.75
7	126902	63.21	245.75
7	127100	63.31	245.75
7	127301	63.41	245.75
7	127496	63.51	245.75
7	127679	63.61	245.75
7	127880	63.71	245.75
7	128081	63.81	245.75
7	128279	63.91	245.75
7	128473	64.01	245.75
7	128659	64.11	245.75
7	128854	64.21	245.75
7	129043	64.31	245.75
7	129235	64.41	245.75
7	129424	64.51	245.75
7	129628	64.61	245.75
7	129823	64.71	245.75
7	130033	64.81	245.75
7	130234	64.91	245.75
7	130437	65.01	245.75
7	130629	65.11	245.75
7	130830	65.21	245.75
7	131016	65.31	245.75
7	131208	65.41	245.75
7	131406	65.51	245.75
7	131607	65.61	245.75
7	131802	65.71	245.75
7	131988	65.81	245.75
7	132195	65.91	245.75
7	132401	66.01	245.75
7	132584	66.11	245.75
7	132770	66.21	245.75
7	132965	66.31	245.75
7	133157	66.41	245.75
7	133352	66.51	245.75
7	133538	66.61	245.75
7	133733	66.71	245.75
7	133928	66.81	245.75
7	134117	66.91	245.75
7	134332	67.01	245.75
7	134515	67.11	245.75
7	134710	67.21	245.75
7	134887	67.31	245.75
7	135088	67.41	245.75
7	135295	67.51	245.75
7	135481	67.61	245.75
7	135667	67.71	245.75
7	135865	67.81	245.75
7	136060	67.91	245.75
7	136263	68.01	245.75
7	136452	68.11	245.75
7	136653	68.21	245.75
7	136851	68.31	245.75
7	137040	68.41	245.75
7	137235	68.51	245.75
7	137433	68.61	245.75
7	137625	68.71	245.75
7	137814	68.81	245.75
7	138006	68.91	245.75
7	138200	69.01	245.75
7	138392	69.11	245.75
7	138596	69.21	245.75
7	138797	69.31	245.75
7	138992	69.41	245.75
7	139184	69.51	245.75
7	139379	69.61	245.75
7	139577	69.71	245.75
7	139781	69.81	245.75
7	139976	69.91	245.75
7	140179	70.01	245.75
7	140371	70.11	245.75
7	140569	70.21	245.75
7	140755	70.31	245.75
7	140953	70.41	245.75
7	141157	70.51	245.75
7	141358	70.61	245.75
7	141562	70.71	245.75
7	141763	70.81	245.75
7	141964	70.91	245.75
7	142164	71.01	245.75
7	142359	71.11	245.75
7	142557	71.21	245.75
7	142743	71.31	245.75
7	142938	71.41	245.75
7	143142	71.51	245.75
7	143334	71.61	245.75
7	143529	71.71	245.75
7	143724	71.81	245.75
7	143916	71.91	245.75
7	144113	72.01	245.75
7	144308	72.11	245.75
7	144506	72.21	245.75
7	144713	72.31	245.75
7	144917	72.41	245.75
7	145115	72.51	245.75
7	145316	72.61	245.75
7	145502	72.71	245.75
7	145700	72.81	245.75
7	145895	72.91	245.75
7	146092	73.01	245.75
7	146290	73.11	245.75
7	146485	73.21	245.75
7	146680	73.31	245.75
7	146884	73.41	245.75
7	147082	73.51	245.75
7	147277	73.61	245.75
7	147475	73.71	245.75
7	147670	73.81	245.75
7	147868	73.91	245.75
7	148062	74.01	245.75
7	148254	74.11	245.75
7	148446	74.21	245.75
7	148641	74.31	245.75
7	148836	74.41	245.75
7	149034	74.51	245.75
7	149223	74.61	245.75
7	149409	74.71	245.75
7	149595	74.81	245.75
7	149793	74.91	245.75
7	149996	75.01	245.75
7	150194	75.11	245.75
7	150392	75.21	245.75
7	150587	75.31	245.75
7	150785	75.41	245.75
7	150980	75.51	245.75
7	151187	75.61	245.75
7	151379	75.71	245.75
7	151559	75.81	245.75
7	151763	75.91	245.75
7	151963	76.01	245.75
7	152152	76.11	245.75
7	152356	76.21	245.75
7	152557	76.31	245.75
7	152737	76.41	245.75
7	152935	76.51	245.75
7	153118	76.61	245.75
7	153304	76.71	245.75
7	153499	76.81	245.75
7	153694	76.91	245.75
7	153900	77.01	245.75
7	154110	77.11	245.75
7	154305	77.21	245.75
7	154497	77.31	245.75
7	154692	77.41	245.75
7	154899	77.51	245.75
7	155094	77.61	245.75
7	155289	77.71	245.75
7	155487	77.81	245.75
7	155676	77.91	245.75
7	155870	78.01	245.75
7	156065	78.11	245.75
7	156263	78.21	245.75
7	156455	78.31	245.75
7	156656	78.41	245.75
7	156848	78.51	245.75
7	157040	78.61	245.75
7	157238	78.71	245.75
7	157436	78.81	245.75
7	157634	78.91	245.75
7	157840	79.01	245.75
7	158035	79.11	245.75
7	158221	79.21	245.75
7	158422	79.31	245.75
7	158617	79.41	245.75
7	158818	79.51	245.75
7	159022	79.61	245.75
7	159214	79.71	245.75
7	159403	79.81	245.75
7	159598	79.91	245.75
7	159798	80.01	245.75
7	160008	80.11	245.75
7	160209	80.21	245.75
7	160404	80.31	245.75
7	160599	80.41	245.75
7	160794	80.51	245.75
7	160995	80.61	245.75
7	161187	80.71	245.75
7	161376	80.81	245.75
7	161571	80.91	245.75
7	161774	81.01	245.75
7	161963	81.11	245.75
7	162152	81.21	245.75
7	162356	81.31	245.75
7	162542	81.41	245.75
7	162737	81.51	245.75
7	162935	81.61	245.75
7	163118	81.71	245.75
7	163307	81.81	245.75
7	163505	81.91	245.75
7	163699	82.01	245.75
7	163894	82.11	245.75
7	164092	82.21	245.75
7	164293	82.31	245.75
7	164497	82.41	245.75
7	164698	82.51	245.75
7	164887	82.61	245.75
7	165079	82.71	245.75
7	165277	82.81	245.75
7	165475	82.91	245.75
7	165681	83.01	245.75
7	165873	83.11	245.75
7	166059	83.21	245.75
7	166248	83.31	245.75
7	166437	83.41	245.75
7	166638	83.51	245.75
7	166833	83.61	245.75
7	167025	83.71	245.75
7	167232	83.81	245.75
7	167415	83.91	245.75
7	167618	84.01	245.75
7	167816	84.11	245.75
7	168011	84.21	245.75
7	168212	84.31	245.75
7	168410	84.41	245.75
7	168599	84.51	245.75
7	168788	84.61	245.75
7	168989	84.71	245.75
7	169190	84.81	245.75
7	169376	84.91	245.75
7	169582	85.01	245.75
7	169780	85.11	245.75
7	169975	85.21	245.75
7	170173	85.31	245.75
7	170374	85.41	245.75
7	170575	85.51	245.75
7	170773	85.61	245.75
7	170968	85.71	245.75
7	171160	85.81	245.75
7	171361	85.91	245.75
7	171558	86.01	245.75
7	171759	86.11	245.75
7	171954	86.21	245.75
7	172140	86.31	245.75
7	172341	86.41	245.75
7	172539	86.51	245.75
7	172737	86.61	245.75
7	172935	86.71	245.75
7	173127	86.81	245.75
7	173337	86.91	245.75
7	173528	87.01	245.75
7	173708	87.11	245.75
7	173903	87.21	245.75
7	174098	87.31	245.75
7	174287	87.41	245.75
7	174485	87.51	245.75
7	174677	87.61	245.75
7	174872	87.71	245.75
7	175073	87.81	245.75
7	175274	87.91	245.75
7	175468	88.01	245.75
7	175657	88.11	245.75
7	175843	88.21	245.75
7	176038	88.31	245.75
7	176233	88.41	245.75
7	176428	88.51	245.75
7	176623	88.61	245.75
7	176800	88.71	245.75
7	176992	88.81	245.75
7	177181	88.91	245.75
7	177381	89.01	245.75
7	177564	89.11	245.75
7	177753	89.21	245.75
7	177951	89.31	245.75
7	178146	89.41	245.75
7	178332	89.51	245.75
7	178524	89.61	245.75
7	178728	89.71	245.75
7	178926	89.81	245.75
7	179118	89.91	245.75
6	113	1.11	47.5202
6	299	1.21	50.2982
6	506	1.31	53.0762
6	704	1.41	55.8542
6	899	1.51	58.6321
6	1094	1.61	61.4101
6	1292	1.71	64.188
6	1484	1.81	66.966
6	1673	1.91	69.7439
6	1873	2.01	72.5218
6	2068	2.11	75.2997
6	2263	2.21	78.0775
6	2452	2.31	80.8554
6	2641	2.41	83.6332
6	2836	2.51	86.4111
6	3025	2.61	89.1889
6	3232	2.71	91.9667
6	3427	2.81	94.7445
6	3616	2.91	97.5223
6	3804	3.01	100.3
6	3981	3.11	103.078
6	4170	3.21	105.856
6	4362	3.31	108.634
6	4566	3.41	111.411
6	4764	3.51	114.189
6	4965	3.61	116.967
6	5163	3.71	119.745
6	5358	3.81	122.522
6	5553	3.91	125.3
6	5750	4.01	128.078
6	5939	4.11	130.856
6	6134	4.21	133.633
6	6329	4.31	136.411
6	6509	4.41	139.189
6	6719	4.51	141.967
6	6908	4.61	144.745
6	7088	4.71	147.522
6	7304	4.81	150.3
6	7493	4.91	153.078
6	7708	5.01	155.856
6	7897	5.11	158.633
6	8104	5.21	161.411
6	8296	5.31	164.189
6	8488	5.41	166.967
6	8686	5.51	169.745
6	8884	5.61	172.522
6	9073	5.71	175.3
6	9268	5.81	178.078
6	9466	5.91	180.856
6	9663	6.01	183.633
6	9858	6.11	186.411
6	10053	6.21	189.189
6	10257	6.31	191.967
6	10446	6.41	194.745
6	10641	6.51	197.522
6	10821	6.61	200.3
6	11019	6.71	203.078
6	11208	6.81	205.856
6	11403	6.91	208.633
6	11609	7.01	211.411
6	11819	7.11	214.189
6	12011	7.21	216.967
6	12203	7.31	219.745
6	12383	7.41	222.522
6	12584	7.51	225.3
6	12779	7.61	228.078
6	12968	7.71	230.856
6	13163	7.81	233.633
6	13346	7.91	236.411
6	13540	8.01	239.189
6	13735	8.11	241.967
6	13939	8.21	244.745
6	14137	8.31	247.522
6	14335	8.41	250.3
6	14542	8.51	253.078
6	14743	8.61	255.856
6	14941	8.71	258.633
6	15130	8.81	261.411
6	15316	8.91	264.189
6	15510	9.01	266.967
6	15711	9.11	269.745
6	15906	9.21	272.522
6	16110	9.31	275.3
6	16314	9.41	278.078
6	16506	9.51	280.856
6	16692	9.61	283.633
6	16884	9.71	286.411
6	17085	9.81	289.189
6	17280	9.91	291.967
6	17480	10.01	294.745
6	17672	10.11	297.522
6	17867	10.21	300.3
6	18083	10.31	303.078
6	18281	10.41	305.856
6	18473	10.51	308.634
6	18677	10.61	311.411
6	18869	10.71	314.189
6	19067	10.81	316.967
6	19265	10.91	319.745
6	19463	11.01	322.522
6	20872	11.11	325.3
6	21067	11.21	328.078
6	21250	11.31	330.856
6	21448	11.41	333.634
6	21628	11.51	336.411
6	21829	11.61	339.189
6	22039	11.71	341.967
6	22243	11.81	344.745
6	22429	11.91	347.522
6	22632	12.01	350.3
6	22830	12.11	353.078
6	23016	12.21	355.856
6	23208	12.31	358.634
6	23400	12.41	361.411
6	23601	12.51	364.189
6	23802	12.61	366.967
6	23997	12.71	369.745
6	24195	12.81	372.522
6	24405	12.91	375.3
6	24599	13.01	378.078
6	24788	13.11	380.856
6	24980	13.21	383.634
6	25169	13.31	386.411
6	25358	13.41	389.189
6	25562	13.51	391.967
6	25778	13.61	394.745
6	25976	13.71	397.522
6	26162	13.81	400.3
6	26363	13.91	403.078
6	26566	14.01	405.856
6	26761	14.11	408.634
6	27336	14.21	411.411
6	27531	14.31	414.189
6	27729	14.41	416.967
6	27936	14.51	419.745
6	28137	14.61	422.522
6	28341	14.71	425.3
6	28536	14.81	428.078
6	28731	14.91	430.856
6	28931	15.01	433.634
6	29114	15.11	436.411
6	29309	15.21	439.189
6	29519	15.31	441.967
6	29711	15.41	444.745
6	29909	15.51	447.523
6	30098	15.61	450.3
6	30293	15.71	453.078
6	30494	15.81	455.856
6	30695	15.91	458.634
6	30892	16.01	461.411
6	31093	16.11	464.189
6	31297	16.21	466.967
6	31492	16.31	469.745
6	31696	16.41	472.523
6	31879	16.51	475.3
6	32074	16.61	478.078
6	32278	16.71	480.856
6	33354	16.81	483.634
6	33549	16.91	486.411
6	33743	17.01	489.189
6	33932	17.11	491.967
6	34124	17.21	494.745
6	34316	17.31	497.523
6	34517	17.41	500.3
6	34721	17.51	503.078
6	34925	17.61	505.856
6	35123	17.71	508.634
6	35312	17.81	511.411
6	35516	17.91	514.189
6	35716	18.01	516.967
6	35908	18.11	519.745
6	36091	18.21	522.523
6	36283	18.31	525.3
6	36484	18.41	528.078
6	36682	18.51	530.856
6	36877	18.61	533.634
6	37078	18.71	536.411
6	37267	18.81	539.189
6	37471	18.91	541.967
6	37668	19.01	544.745
6	37869	19.11	547.523
6	38061	19.21	550.3
6	38253	19.31	553.078
6	38454	19.41	555.856
6	38658	19.51	558.634
6	38856	19.61	561.411
6	39045	19.71	564.189
6	39222	19.81	566.967
6	39423	19.91	569.745
6	39626	20.01	572.523
6	39824	20.11	575.3
6	40010	20.21	578.078
6	40205	20.31	580.856
6	40397	20.41	583.634
6	40589	20.51	586.412
6	40793	20.61	589.189
6	40982	20.71	591.967
6	41177	20.81	594.745
6	41366	20.91	597.523
6	41572	21.01	600.3
6	41767	21.11	603.078
6	41962	21.21	605.856
6	42169	21.31	608.634
6	42379	21.41	611.412
6	42565	21.51	614.189
6	42772	21.61	616.967
6	42976	21.71	619.745
6	43180	21.81	622.523
6	43369	21.91	625.3
6	43566	22.01	628.078
6	43764	22.11	630.856
6	43953	22.21	633.634
6	44157	22.31	636.412
6	44343	22.41	639.189
6	44538	22.51	641.967
6	44736	22.61	644.745
6	44940	22.71	647.523
6	45135	22.81	650.3
6	45315	22.91	653.078
6	45524	23.01	655.856
6	45719	23.11	658.634
6	45902	23.21	661.412
6	46103	23.31	664.189
6	46298	23.41	666.967
6	46493	23.51	669.745
6	46700	23.61	672.523
6	46886	23.71	675.3
6	47081	23.81	678.078
6	47273	23.91	680.856
6	47470	24.01	683.634
6	47659	24.11	686.412
6	47851	24.21	689.189
6	48052	24.31	691.967
6	48235	24.41	694.745
6	48424	24.51	697.523
6	48622	24.61	700.3
6	48820	24.71	703.078
6	49721	24.81	705.856
6	49919	24.91	708.634
6	50122	25.01	711.412
6	50317	25.11	714.189
6	50512	25.21	716.967
6	50707	25.31	719.745
6	50893	25.41	722.523
6	51085	25.51	725.301
6	51286	25.61	728.078
6	51490	25.71	730.856
6	51691	25.81	733.634
6	51886	25.91	736.412
6	52083	26.01	739.189
6	52269	26.11	741.967
6	52461	26.21	744.745
6	52656	26.31	747.523
6	52851	26.41	750.301
6	53037	26.51	753.078
6	53226	26.61	755.856
6	53436	26.71	758.634
6	53628	26.81	761.412
6	53817	26.91	764.189
6	54014	27.01	766.967
6	54218	27.11	769.745
6	54410	27.21	772.523
6	54605	27.31	775.301
6	54791	27.41	778.078
6	54983	27.51	780.856
6	55181	27.61	783.634
6	55373	27.71	786.412
6	55574	27.81	789.189
6	55778	27.91	791.967
6	56430	28.01	794.745
6	56637	28.11	797.523
6	56829	28.21	800.301
6	57033	28.31	803.078
6	57222	28.41	805.856
6	57420	28.51	808.634
6	57621	28.61	811.412
6	57816	28.71	814.189
6	58014	28.81	816.967
6	58209	28.91	819.745
6	58418	29.01	822.523
6	58622	29.11	825.301
6	58823	29.21	828.078
6	59030	29.31	830.856
6	59222	29.41	833.634
6	59405	29.51	836.412
6	59585	29.61	839.189
6	59774	29.71	841.967
6	59966	29.81	844.745
6	60158	29.91	847.523
6	60364	30.01	850.301
6	60553	30.11	853.078
6	60754	30.21	855.856
6	60940	30.31	858.634
6	61129	30.41	861.412
6	61327	30.51	864.19
6	61510	30.61	866.967
6	61708	30.71	869.745
6	61900	30.81	872.523
6	62095	30.91	875.301
6	62277	31.01	878.078
6	62481	31.11	880.856
6	62676	31.21	883.634
6	62865	31.31	886.412
6	63072	31.41	889.19
6	63276	31.51	891.967
6	63465	31.61	894.745
6	63660	31.71	897.523
6	63858	31.81	900.301
6	64065	31.91	903.078
6	64262	32.01	905.856
6	64451	32.11	908.634
6	64631	32.21	911.412
6	64823	32.31	914.19
6	65027	32.41	916.967
6	65234	32.51	919.745
6	65432	32.61	922.523
6	65621	32.71	925.301
6	65807	32.81	928.078
6	66005	32.91	930.856
6	66205	33.01	933.634
6	66403	33.11	936.412
6	66589	33.21	939.19
6	66787	33.31	941.967
6	66982	33.41	944.745
6	67174	33.51	947.523
6	67369	33.61	950.301
6	67567	33.71	953.078
6	67765	33.81	955.856
6	67957	33.91	958.634
6	68157	34.01	961.412
6	68361	34.11	964.19
6	68556	34.21	966.967
6	68754	34.31	969.745
6	68958	34.41	972.523
6	69159	34.51	975.301
6	69354	34.61	978.078
6	69552	34.71	980.856
6	69741	34.81	983.634
6	69936	34.91	986.412
6	70139	35.01	989.19
6	70328	35.11	991.967
6	70523	35.21	994.745
6	70718	35.31	997.523
6	70919	35.41	1000.3
6	71117	35.51	1003.08
6	71315	35.61	1005.86
6	71504	35.71	1008.63
6	73251	35.81	1011.41
6	73440	35.91	1014.19
6	73637	36.01	1016.97
6	73829	36.11	1019.76
6	74021	36.21	1022.55
6	74207	36.31	1025.35
6	74399	36.41	1028.16
6	74597	36.51	1030.98
6	74801	36.61	1033.82
6	74999	36.71	1036.66
6	75209	36.81	1039.52
6	75389	36.91	1042.39
6	75604	37.01	1045.27
6	75784	37.11	1048.17
6	75967	37.21	1051.08
6	76171	37.31	1054
6	76357	37.41	1056.94
6	76558	37.51	1059.89
6	76753	37.61	1062.86
6	76948	37.71	1065.84
6	77134	37.81	1068.84
6	77320	37.91	1071.85
6	77520	38.01	1074.88
6	77718	38.11	1077.92
6	77919	38.21	1080.97
6	78111	38.31	1084.04
6	78303	38.41	1087.13
6	78489	38.51	1090.23
6	78687	38.61	1093.35
6	78882	38.71	1096.48
6	79077	38.81	1099.62
6	79275	38.91	1102.78
6	79475	39.01	1105.96
6	79667	39.11	1109.15
6	79859	39.21	1112.35
6	80051	39.31	1115.58
6	80240	39.41	1118.81
6	80429	39.51	1122.06
6	80621	39.61	1125.33
6	80822	39.71	1128.61
6	81014	39.81	1131.9
6	81212	39.91	1135.21
6	81418	40.01	1138.54
6	81610	40.11	1141.88
6	81802	40.21	1145.23
6	81997	40.31	1148.6
6	82198	40.41	1151.99
6	82387	40.51	1155.39
6	82579	40.61	1158.8
6	82777	40.71	1162.23
6	82963	40.81	1165.68
6	83143	40.91	1169.14
6	83343	41.01	1172.62
6	83541	41.11	1176.11
6	83742	41.21	1179.61
6	83943	41.31	1183.13
6	84138	41.41	1186.66
6	84327	41.51	1190.2
6	84519	41.61	1193.75
6	84708	41.71	1197.32
6	84900	41.81	1200.89
6	85104	41.91	1204.47
6	85304	42.01	1208.06
6	85490	42.11	1211.65
6	85679	42.21	1215.25
6	85871	42.31	1218.86
6	86075	42.41	1222.47
6	86270	42.51	1226.08
6	86468	42.61	1229.69
6	86672	42.71	1233.31
6	86867	42.81	1236.93
6	87074	42.91	1240.55
6	87286	43.01	1244.17
6	87481	43.11	1247.79
6	87688	43.21	1251.41
6	87883	43.31	1255.03
6	88081	43.41	1258.66
6	88288	43.51	1262.28
6	88480	43.61	1265.9
6	88681	43.71	1269.52
6	88864	43.81	1273.14
6	89056	43.91	1276.76
6	89253	44.01	1280.37
6	89439	44.11	1283.99
6	89631	44.21	1287.61
6	89829	44.31	1291.22
6	90021	44.41	1294.84
6	90210	44.51	1298.45
6	90402	44.61	1302.07
6	90591	44.71	1305.68
6	90786	44.81	1309.3
6	90987	44.91	1312.91
6	91199	45.01	1316.52
6	91394	45.11	1320.13
6	91592	45.21	1323.75
6	91778	45.31	1327.36
6	91973	45.41	1330.97
6	92174	45.51	1334.58
6	92375	45.61	1338.19
6	92579	45.71	1341.8
6	92783	45.81	1345.41
6	92996	45.91	1349.02
6	93199	46.01	1352.64
6	93397	46.11	1356.25
6	93592	46.21	1359.86
6	93784	46.31	1363.47
6	93970	46.41	1367.08
6	94165	46.51	1370.69
6	94363	46.61	1374.3
6	94546	46.71	1377.91
6	94738	46.81	1381.52
6	94927	46.91	1385.13
6	95121	47.01	1388.74
6	95316	47.11	1392.35
6	95511	47.21	1395.96
6	95706	47.31	1399.57
6	95889	47.41	1403.19
6	96087	47.51	1406.8
6	96285	47.61	1410.41
6	96468	47.71	1414.02
6	96666	47.81	1417.63
[...]
49	128034	63.801719973178	4
49	128232	63.901726596881	4
49	128996	64.301727147242	4
49	129182	64.401720798719	4
49	129581	64.601721118341	4
49	130387	65.001721824252	4
49	130582	65.10172851462	4
49	130777	65.201722210542	4
49	131167	65.401722619055	4
49	131362	65.501729331646	4
49	131557	65.601723049793	4
49	131755	65.701716773495	4
49	131944	65.801723502754	4
49	132726	66.20172447535	4
49	133680	66.701719316117	4
49	134279	67.001726687258	4
49	134663	67.201727295803	4
49	135242	67.501721750297	4
49	136216	68.001716952262	4
49	136411	68.101723809328	4
49	136993	68.401718413868	4
49	137389	68.601719178015	4
49	137767	68.801719964393	4
49	138549	69.201721603837	4
49	138750	69.301728527592	4
49	139140	69.501729391776	4
49	139326	69.601723332205	4
49	139530	69.701717278192	4
49	139734	69.801724229736	4
49	140327	70.101719117717	4
49	140519	70.201726091493	4
49	141113	70.501721046167	4
49	141515	70.701722043741	4
49	141710	70.801729050866	4
49	141914	70.90172306355	4
49	142315	71.10172410559	4
49	142504	71.201718134947	4
49	142885	71.401719210335	4
49	143284	71.601720307957	4
49	143479	71.701727365106	4
49	143677	71.801721427813	4
49	144657	72.301717824719	4
49	145068	72.50171902239	4
49	145272	72.601726129562	4
49	145461	72.701720242293	4
49	145650	72.801727360583	4
49	145851	72.901721484432	4
49	146048	73.001728613839	4
49	146240	73.101722748804	4
49	146636	73.301724035409	4
49	146837	73.401718187049	4
49	148204	74.101729404176	4
49	148402	74.201723600287	4
49	148789	74.401725009182	4
49	149173	74.601726440313	4
49	149551	74.80172789368	4
49	149743	74.901722128701	4
49	150345	75.201717867116	4
49	150738	75.401719387186	4
49	152108	76.101718382534	4
49	153074	76.601728974547	4
49	153452	76.801717650266	4
49	153641	76.901724996464	4
49	154060	77.101726705535	4
49	155053	77.601724575493	4
49	155440	77.80172636239	4
49	156018	78.101722584428	4
49	156222	78.201717002892	4
49	156408	78.301724426915	4
49	156603	78.401718856496	4
49	156804	78.501726291636	4
49	157191	78.701728178594	4
49	157793	79.001724550724	4
49	157988	79.101719019218	4
49	158180	79.201726493272	4
49	158372	79.301720972884	4
49	158768	79.501722948785	4
49	158969	79.601717445074	4
49	159359	79.801719454329	4
49	159751	80.00172148582	4
49	159958	80.101729009904	4
49	160357	80.301718074748	4
49	160549	80.401725615509	4
49	160954	80.601727713707	4
49	161721	81.001718976813	4
49	162306	81.301728732514	4
49	162498	81.401723328865	4
49	162690	81.501717930776	4
49	162885	81.601725538246	4
49	163655	82.001717023718	4
49	164648	82.501729255637	4
49	165035	82.701718587319	4
49	165230	82.801726261498	4
49	166591	83.501728136412	4
49	166786	83.601722855065	4
49	167185	83.801725309048	4
49	167766	84.101722531716	4
49	167958	84.201717283724	4
49	168165	84.301725041291	4
49	168555	84.501727573102	4
49	168933	84.70171712715	4
49	169338	84.901719703435	4
49	169730	85.101722301955	4
49	170123	85.301724922712	4
49	170324	85.401719741429	4
49	171116	85.801725071889	4
49	171317	85.901719918402	4
49	171901	86.201717491295	4
49	172288	86.401720234353	4
49	172498	86.501728114221	4
49	173281	86.901720689284	4
49	173853	87.201718428953	4
49	174438	87.501729218655	4
49	175023	87.801727058389	4
49	175805	88.201719922531	4
49	176387	88.501717879009	4
49	176582	88.60172587562	4
49	177134	88.901723898809	4
49	177709	89.201721972031	4
49	177904	89.301717007557	4
49	178099	89.401725048642	4
55	1527	1.849417221539	4
55	1913	2.049414821951	4
55	2114	2.149407122157	4
55	2306	2.249412422361	4
55	2687	2.449410022771	4
55	3074	2.649407623181	4
55	4408	3.349405724625	4
55	4810	3.54941632504	4
55	5014	3.649408625248	4
55	5206	3.749413925456	4
55	6177	4.249414426498	4
55	6555	4.449412026914	4
55	7137	4.749414927538	4
55	7344	4.849407227746	4
55	7539	4.949412527954	4
55	7751	5.049417828162	4
55	7946	5.14941012837	4
55	8339	5.349407728786	4
55	8732	5.549418329202	4
55	9119	5.749415929618	4
55	9314	5.849408229826	4
55	9706	6.049405830244	4
55	10303	6.349408730871	4
55	10489	6.44941403108	4
55	11062	6.749416931704	4
55	11443	6.94941453212	4
55	11655	7.049406832328	4
55	11859	7.149412132536	4
55	12057	7.249417432744	4
55	12426	7.44941503316	4
55	13583	8.049407834408	4
55	13784	8.149413134616	4
55	13982	8.249418434824	4
55	14585	8.549408335448	4
55	14786	8.649413635656	4
55	14987	8.749405935864	4
55	15173	8.849411236072	4
55	15952	9.249406436904	4
55	16156	9.349411737112	4
55	17323	9.94941753836	4
55	17718	10.149415138776	4
55	17916	10.249407438984	4
55	18327	10.4494180394	4
55	18522	10.549410339608	4
55	18720	10.649415639816	4
55	19110	10.849413240232	4
55	19311	10.94941854044	4
55	21017	11.201729002134	4
55	21197	11.301721302341	4
55	21983	11.701716506103	4
55	22777	12.101724729485	4
55	23164	12.301722354904	4
55	23353	12.401727671778	4
55	23749	12.601725314282	4
55	24343	12.901728299986	4
55	24738	13.101725971162	4
55	25122	13.301723652705	4
55	25308	13.401728997071	4
55	25509	13.501721343659	4
55	25719	13.601726692331	4
55	26112	13.801724395345	4
55	26519	14.001722104922	4
55	27682	14.401725112668	4
55	27880	14.501717473551	4
55	28282	14.701728198088	4
55	28483	14.80172056184	4
55	28678	14.90172592666	4
55	29262	15.201729028199	4
55	29466	15.301721397922	4
55	29856	15.501719141394	4
55	30051	15.601724515178	4
55	30645	15.901727644727	4
55	30836	16.001720023906	4
55	31244	16.201717786037	4
55	31646	16.401728552875	4
55	31835	16.501720937934	4
55	32219	16.701718711098	4
55	33888	17.101721576383	4
55	34266	17.301719364382	4
55	34872	17.601722549987	4
55	35265	17.801720340868	4
55	35463	17.901725735855	4
55	36425	18.401726697242	4
55	37022	18.701716854541	4
55	37421	18.901727613753	4
55	37615	19.001719988894	4
55	37816	19.101725360713	4
55	38602	19.501720809546	4
55	38803	19.601726160844	4
55	39963	20.201719165391	4
55	40344	20.401716795926	4
55	40536	20.501722105071	4
55	40737	20.6017274105	4
55	40929	20.70171971248	4
55	41127	20.801725011263	4
55	41310	20.901717307077	4
55	41516	21.001722600117	4
55	41714	21.101727890544	4
55	41909	21.201720178484	4
55	42113	21.301725464029	4
55	42923	21.701720583068	4
55	43130	21.801725857093	4
55	43516	22.001723398251	4
55	44104	22.301726192977	4
55	44488	22.501723711906	4
55	45082	22.801726475273	4
55	45675	23.101729222525	4
55	46251	23.4017189557	4
55	46449	23.501724197242	4
55	47031	23.801726913902	4
55	47226	23.901719150233	4
55	47426	24.001724385322	4
55	48575	24.601716771026	4
55	48767	24.701721998069	4
55	50240	25.100129627959	4
55	51011	25.500124505808	4
55	51209	25.600129722186	4
55	51413	25.700121937898	4
55	51614	25.800127153422	4
55	52009	26.000124585945	4
55	52393	26.200122023451	4
55	53356	26.700122153795	4
55	54138	27.100117101994	4
55	54333	27.20012234499	4
55	55104	27.600117337981	4
55	55500	27.800127845364	4
55	55695	27.900120101302	4
55	56353	28.000120855855	4
55	56557	28.100126114249	4
55	56953	28.300123633833	4
55	57151	28.4001288947	4
55	57544	28.600126417786	4
55	57937	28.800123941622	4
55	58332	29.000121465024	4
55	58953	29.300124247616	4
55	59151	29.400129507677	4
55	59340	29.500121767368	4
55	59706	29.700119285899	4
55	60293	30.000122062918	4
55	61055	30.400117101185	4
55	61256	30.500122361612	4
55	61637	30.700119883738	4
55	61832	30.800125145418	4
55	62209	31.000122669809	4
55	62788	31.300125458121	4
55	62992	31.400117721123	4
55	63205	31.50012298417	4
55	63391	31.600128247235	4
55	63589	31.70012051031	4
55	63781	31.800125773395	4
55	63982	31.900118036505	4
55	64188	32.000123299663	4
55	64950	32.400118353404	4
55	65154	32.500123617284	4
55	65358	32.600128881403	4
55	65550	32.700121145781	4
55	66326	33.100129206132	4
55	66701	33.300126738056	4
55	67292	33.60012953802	4
55	67685	33.800127072631	4
55	67877	33.900119340312	4
55	68077	34.000124608244	4
55	68479	34.200122144864	4
55	68872	34.400119682532	4
55	69865	34.900120031722	4
55	70065	35.00012530249	4
55	70449	35.200122845004	4
55	70644	35.300128116759	4
55	70842	35.400120388851	4
55	71037	35.50012566128	4
55	71430	35.700123207164	4
55	73521	35.996434897442	4
55	73919	36.196432444709	4
55	74102	36.296424718959	4
55	74684	36.596427544345	4
55	75092	36.796425096857	4
55	75482	36.996435651121	4
55	75685	37.096427928905	4
55	76048	37.29642548584	4
55	76444	37.496436044807	4
55	76642	37.596428325179	4
55	76840	37.696433606246	4
55	77026	37.796425888111	4
55	77410	37.996436454716	4
55	77607	38.096428739727	4
55	78195	38.396431603337	4
55	78384	38.49643689456	4
55	79362	38.996424382346	4
55	79946	39.296427304748	4
55	81095	39.896433227677	4
55	82084	40.396433920085	4
55	82285	40.496426269496	4
55	82663	40.696436980094	4
55	83227	40.996427077104	4
55	83427	41.09643245152	4
55	84981	41.896436618613	4
55	85382	42.096434460865	4
55	85763	42.296432324139	4
55	85955	42.396424763739	4
55	86153	42.496430208683	4
55	86759	42.796433575776	4
55	86954	42.89642604228	4
55	87158	42.99643151421	4
55	87370	43.096436991574	4
55	87964	43.396427456351	4
55	88165	43.496432955519	4
55	88363	43.596425460147	4
55	88561	43.696430970235	4
55	89137	43.996434533252	4
55	89517	44.196432602538	4
55	89907	44.396430693616	4
55	90678	44.796426941054	4
55	91071	44.996425097376	4
55	91280	45.096430683683	4
55	91481	45.19643627542	4
55	91670	45.296428872588	4
55	91862	45.396434475186	4
55	92048	45.496427083215	4
55	92456	45.696425315577	4
55	92660	45.796430939909	4
55	93080	45.996429204889	4
55	93859	46.39642580015	4
55	94048	46.49643146258	4
55	94243	46.59643713046	4
55	94438	46.69642980379	4
55	94633	46.796435482573	4
55	95202	47.096426551646	4
55	96171	47.596429109297	4
55	96552	47.796427570615	4
55	96951	47.996426053813	4
55	97541	48.296430319665	4
55	97724	48.396436085905	4
55	98114	48.596434634821	4
55	98318	48.696427417503	4
55	98513	48.796433205667	4
55	99127	49.096424603076	4
55	99334	49.196430413188	4
55	99712	49.396429049882	4
55	101067	50.09643095137	4
55	101859	50.496428444618	4
55	102051	50.596434331686	4
55	102258	50.696427224258	4
55	102648	50.89642602592	4
55	102834	50.996431935011	4
55	103034	51.096424849611	4
55	103220	51.196430769721	4
55	103622	51.396429626468	4
55	104021	51.596428505265	4
55	104219	51.696434452932	4
55	105004	52.09643229875	4
55	105199	52.196425273995	4
55	105586	52.396424241041	4
55	106378	52.796435241372	4
55	106771	52.996434274669	4
55	107166	53.196433330058	4
55	107751	53.49642545458	4
55	108138	53.696424565228	4
55	108929	54.096435852861	4
55	109730	54.496434228978	4
55	109925	54.596427336836	4
55	110702	54.996425823601	4
55	112051	55.696429888537	4
55	112249	55.796436062818	4
55	112441	55.896429242638	4
55	112642	55.996435427995	4
55	112845	56.096428618891	4
55	113040	56.196434815326	4
55	113442	56.396434224816	4
55	114048	56.696426880604	4
55	114249	56.796433110283	4
55	114450	56.896426345503	4
55	114657	56.996432586266	4
55	114842	57.09642583257	4
55	115046	57.196432084415	4
55	115241	57.296425341804	4
55	115625	57.496424873213	4
55	115826	57.596431147234	4
55	116201	57.796430711908	4
55	116606	57.996430298762	4
55	116818	58.096436600507	4
55	117010	58.196429907797	4
55	118363	58.896435214126	4
55	118555	58.996428565789	4
55	118758	59.096434923002	4
55	119337	59.396428027928	4
55	119544	59.496434407332	4
55	119742	59.596427792286	4
55	120141	59.796427578842	4
55	120522	59.996427387595	4
55	120728	60.096433800296	4
55	120926	60.196427218548	4
55	121121	60.29643364235	4
55	121319	60.396427071702	4
55	121691	60.596426947057	4
55	122090	60.796426844613	4
55	122285	60.896433301719	4
55	122483	60.996426764377	4
55	122890	61.196426706346	4
55	123673	61.596426656908	4
55	124057	61.796426665502	4
55	124255	61.896433178128	4
55	124665	62.096433220039	4
55	125238	62.396426824551	4
55	125622	62.596426921993	4
55	125823	62.696433479044	4
55	126021	62.79642704165	4
55	126207	62.896433609809	4
55	126980	63.296433937986	4
55	127181	63.396427533915	4
55	127964	63.796427973179	4
55	128734	64.196428501319	4
55	129310	64.496435455753	4
55	129511	64.596429118341	4
55	129910	64.796429460185	4
55	130117	64.89643613944	4
55	130515	65.096436514619	4
55	131091	65.396430619055	4
55	132075	65.896425237569	4
55	132279	65.996431977939	4
55	132479	66.096425723867	4
55	133616	66.696427316117	4
55	134410	67.096428488752	4
55	135559	67.696430414411	4
55	135748	67.796424254804	4
55	135943	67.896431100755	4
55	136542	68.19642567195	4
55	136734	68.29643254013	4
55	137319	68.596427178015	4
55	137508	68.696434068424	4
55	137892	68.896434865918	4
55	138281	69.09643568564	4
55	138476	69.196429603837	4
55	139070	69.496424391777	4
55	139658	69.796432229736	4
55	141235	70.596436042174	4
55	141439	70.696430043741	4
55	141643	70.796437050865	4
55	141850	70.896431063549	4
55	142045	70.996425081791	4
55	142821	71.396427210335	4
55	143220	71.596428307956	4
55	143805	71.896436496078	4
55	144000	71.996430569902	4
55	144194	72.096424649283	4
55	144797	72.396432920775	4
55	145196	72.596434129563	4
55	145583	72.796435360583	4
55	145784	72.896429484432	4
55	146173	73.096430748804	4
55	146368	73.196424889328	4
55	147166	73.596427507008	4
55	147358	73.696434675324	4
55	147748	73.896436028632	4
55	148134	74.096424404176	4
55	148329	74.196431600287	4
55	148920	74.496427221968	4
55	149109	74.596434440313	4
55	149304	74.696428664217	4
55	149484	74.79643589368	4
55	150080	75.096431615419	4
55	150275	75.196425867116	4
55	150668	75.396427387187	4
55	152230	76.196433689819	4
55	152440	76.296428002663	4
55	153190	76.696431309627	4
55	153772	76.99642734822	4
55	153984	77.096434705535	4
55	154194	77.196429068409	4
55	154386	77.296436436841	4
55	154578	77.396430810833	4
55	155370	77.79643436239	4
55	155948	78.096430584427	4
55	156146	78.196425002891	4
55	156341	78.296432426914	4
55	156533	78.396426856496	4
55	156734	78.496434291636	4
55	157124	78.696436178594	4
55	157316	78.796430630412	4
55	157715	78.996432550724	4
55	157918	79.096427019217	4
55	158113	79.196434493271	4
55	159295	79.796427454329	4
55	160095	80.196431539548	4
55	160680	80.496428161829	4
55	161259	80.796424834141	4
55	161649	80.996426976813	4
55	161855	81.096434556488	4
55	162818	81.596433538246	4
55	163010	81.696428151275	4
55	163388	81.896430394011	4
55	164179	82.296434946192	4
55	164380	82.396429598135	4
55	164965	82.696426587319	4
55	165163	82.796434261498	4
55	165361	82.896428941237	4
55	166137	83.296433715783	4
55	166524	83.496436136412	4
55	166719	83.596430855065	4
55	167112	83.796433309048	4
55	167499	83.996435785266	4
55	168092	84.29643304129	4
55	168293	84.396427804416	4
55	169073	84.796432912512	4
55	169457	84.996435499915	4
55	169864	85.196425109554	4
55	170050	85.296432922712	4
55	170455	85.496435565705	4
55	170659	85.59643039554	4
55	170851	85.696425230935	4
55	171049	85.796433071889	4
55	171244	85.896427918402	4
55	172218	86.396428234353	4
55	172821	86.696425890634	4
55	173013	86.796433787179	4
55	174368	87.496424218655	4
55	174953	87.796435058389	4
55	175157	87.896430016086	4
55	175546	88.096432948157	4
55	175732	88.196427922531	4
55	176695	88.696428877791	4
55	176887	88.79643688552	4
55	177456	89.096434942064	4
55	177834	89.296425007557	4
55	178032	89.396433048642	4
55	178218	89.496428095286	4
55	178608	89.696431205252	4
55	179007	89.896434337455	4
55	179196	89.996429411895	4
70	1774	2	0
70	3720	3	0
70	5654	4	0
70	7606	5	0
70	9570	6	0
70	11507	7	0
70	13453	8	0
70	15420	9	0
70	17390	10	0
70	19369	11	0
70	22533	12	0
70	24509	13	0
70	26470	14	0
70	28838	15	0
70	30796	16	0
70	33650	17	0
70	35620	18	0
70	37569	19	0
70	39527	20	0
70	41473	21	0
70	43470	22	0
70	45419	23	0
70	47380	24	0
70	50029	25	0
70	51984	26	0
70	53915	27	0
70	56325	28	0
70	58304	29	0
70	60268	30	0
70	62187	31	0
70	64163	32	0
70	66115	33	0
70	68058	34	0
70	70046	35	0
70	73541	36	0
70	75502	37	0
70	77430	38	0
70	79382	39	0
70	81319	40	0
70	83247	41	0
70	85202	42	0
70	87184	43	0
70	89163	44	0
70	91097	45	0
70	93106	46	0
70	95025	47	0
70	96977	48	0
70	98941	49	0
70	100893	50	0
70	102857	51	0
70	104809	52	0
70	106794	53	0
70	108755	54	0
70	110725	55	0
70	112665	56	0
70	114683	57	0
70	116629	58	0
70	118581	59	0
70	120548	60	0
70	122509	61	0
70	124485	62	0
70	126419	63	0
70	128383	64	0
70	130338	65	0
70	132302	66	0
70	134224	67	0
70	136161	68	0
70	138107	69	0
70	140077	70	0
70	142068	71	0
70	144023	72	0
70	145996	73	0
70	147969	74	0
70	149897	75	0
70	151864	76	0
70	153795	77	0
70	155771	78	0
70	157738	79	0
70	159702	80	0
70	161672	81	0
70	163603	82	0
70	165582	83	0
70	167525	84	0
70	169483	85	0
70	171462	86	0
70	173432	87	0
70	175378	88	0
70	177288	89	0
70	179222	90	0
69	1774	2	0.013300418213
69	3720	3	0.015608997945
69	5654	4	0.015608997928
69	7606	5	0.015608997919
69	9570	6	0.015608997918
69	11507	7	0.015608997916
69	13453	8	0.01560899792
69	15420	9	0.01562199792
69	17390	10	0.01560899792
69	19369	11	0.01560899792
69	22533	12	0.017859299975
69	24509	13	0.015608786401
69	26470	14	0.015608529278
69	28838	15	0.01630181227
69	30796	16	0.015608268725
69	33650	17	0.017133982959
69	35620	18	0.015608053227
69	37569	19	0.015608141358
69	39527	20	0.015608472005
69	41473	21	0.015608916762
69	43470	22	0.015622201855
69	45419	23	0.015609423159
69	47380	24	0.015609589777
69	50029	25	0.016979980158
69	51984	26	0.015609819221
69	53915	27	0.01560972464
69	56325	28	0.01643000545
69	58304	29	0.015609390831
69	60268	30	0.015609402106
69	62187	31	0.015609393109
69	64163	32	0.015609370146
69	66115	33	0.015609359058
69	68058	34	0.015609332361
69	70046	35	0.015609305754
69	73541	36	0.018238489912
69	75502	37	0.015609246321
69	77430	38	0.015609196405
69	79382	39	0.015609072371
69	81319	40	0.015608823139
69	83247	41	0.015608482102
69	85202	42	0.015608039974
69	87184	43	0.01562052292
69	89163	44	0.015606980958
69	91097	45	0.015606435876
69	93106	46	0.015605892487
69	95025	47	0.015618348391
69	96977	48	0.015604802685
69	98941	49	0.015617255361
69	100893	50	0.015603706642
69	102857	51	0.015616156798
69	104809	52	0.015602605991
69	106794	53	0.015615054352
69	108755	54	0.015601502011
69	110725	55	0.015613949057
69	112665	56	0.015613395606
69	114683	57	0.01561284173
69	116629	58	0.015599287503
69	118581	59	0.015611732972
69	120548	60	0.015611178196
69	122509	61	0.015610623217
69	124485	62	0.015610068069
69	126419	63	0.015609512786
69	128383	64	0.015608957383
69	130338	65	0.015608401887
69	132302	66	0.015620846312
69	134224	67	0.015607290682
69	136161	68	0.015606734995
69	138107	69	0.015606179263
69	140077	70	0.015618623502
69	142068	71	0.015605067707
69	144023	72	0.015604511889
69	145996	73	0.015616956064
69	147969	74	0.015603400213
69	149897	75	0.015615844344
69	151864	76	0.015615288472
69	153795	77	0.015601732589
69	155771	78	0.015614176698
69	157738	79	0.015613620798
69	159702	80	0.015600064904
69	161672	81	0.015612509007
69	163603	82	0.015611953095
69	165582	83	0.015611397183
69	167525	84	0.015610841268
69	169483	85	0.015610285352
69	171462	86	0.015609729441
69	173432	87	0.015609173526
69	175378	88	0.015608617606
69	177288	89	0.015608061685
69	179222	90	0.015607505762
68	1774	2	4
68	3720	3	4
68	5654	4	4
68	7606	5	4
68	9570	6	4
68	11507	7	4
68	13453	8	4
68	15420	9	4
68	17390	10	4
68	19369	11	4
68	22533	12	4
68	24509	13	4
68	26470	14	4
68	28838	15	4
68	30796	16	4
68	33650	17	4
68	35620	18	4
68	37569	19	4
68	39527	20	4
68	41473	21	4
68	43470	22	4
68	45419	23	4
68	47380	24	4
68	50029	25	4
68	51984	26	4
68	53915	27	4
68	56325	28	4
68	58304	29	4
68	60268	30	4
68	62187	31	4
68	64163	32	4
68	66115	33	4
68	68058	34	4
68	70046	35	4
68	73541	36	4
68	75502	37	4
68	77430	38	4
68	79382	39	4
68	81319	40	4
68	83247	41	4
68	85202	42	4
68	87184	43	4
68	89163	44	4
68	91097	45	4
68	93106	46	4
68	95025	47	4
68	96977	48	4
68	98941	49	4
68	100893	50	4
68	102857	51	4
68	104809	52	4
68	106794	53	4
68	108755	54	4
68	110725	55	4
68	112665	56	4
68	114683	57	4
68	116629	58	4
68	118581	59	4
68	120548	60	4
68	122509	61	4
68	124485	62	4
68	126419	63	4
68	128383	64	4
68	130338	65	4
68	132302	66	4
68	134224	67	4
68	136161	68	4
68	138107	69	4
68	140077	70	4
68	142068	71	4
68	144023	72	4
68	145996	73	4
68	147969	74	4
68	149897	75	4
68	151864	76	4
68	153795	77	4
68	155771	78	4
68	157738	79	4
68	159702	80	4
68	161672	81	4
68	163603	82	4
68	165582	83	4
68	167525	84	4
68	169483	85	4
68	171462	86	4
68	173432	87	4
68	175378	88	4
68	177288	89	4
68	179222	90	4

