version 2
run LeaveManeuver-0-20200702-12:37:15-18171
attr configname LeaveManeuver
attr datetime 20200702-12:37:15
attr experiment LeaveManeuver
attr inifile omnetpp.ini
attr iterationvars "$nCars=5, $platoonSize=5, $nLanes=1, $caccXi=1, $caccOmegaN=0.2, $ploegH=0.5, $leaderHeadway=1.2, $leaderSpeed=100, $beaconInterval=0.1, $priority=2, $packetSize=200"
attr iterationvarsf nCars=5,platoonSize=5,nLanes=1,caccXi=1,caccOmegaN=0.2,ploegH=0.5,leaderHeadway=1.2,leaderSpeed=100,beaconInterval=0.1,priority=2,packetSize=200-
attr measurement "$nCars=5, $platoonSize=5, $nLanes=1, $caccXi=1, $caccOmegaN=0.2, $ploegH=0.5, $leaderHeadway=1.2, $leaderSpeed=100, $beaconInterval=0.1, $priority=2, $packetSize=200"
attr network Highway
attr processid 18171
attr repetition 0
attr replication #0
attr resultdir results
attr runnumber 0
attr seedset 0
itervar beaconInterval 0.1
itervar caccOmegaN 0.2
itervar caccXi 1
itervar leaderHeadway 1.2
itervar leaderSpeed 100
itervar nCars 5
itervar nLanes 1
itervar packetSize 200
itervar platoonSize 5
itervar ploegH 0.5
itervar priority 2
param *.manager.command "\"sumo-gui\""
param *.manager.ignoreGuiCommands false
param *.node[*].scenario_type "\"LeaveManeuverScenario\""
param *.playgroundSizeX 65000m
param *.playgroundSizeY 25000m
param *.playgroundSizeZ 50m
param *.annotations.draw false
param *.obstacles.debug false
param *.world.useTorus false
param *.world.use2D false
param *.manager.updateInterval 0.01s
param *.manager.host "\"localhost\""
param *.manager.moduleType "\"org.car2x.plexe.PlatoonCar\""
param *.manager.moduleName "\"node\""
param *.manager.moduleDisplayString "\"\""
param *.manager.autoShutdown true
param *.manager.margin 25
param *.connectionManager.sendDirect true
param *.connectionManager.maxInterfDist 2600m
param *.connectionManager.drawMaxIntfDist false
param *.**.nic.mac1609_4.useServiceChannel false
param *.**.nic.mac1609_4.txPower 100mW
param *.**.nic.mac1609_4.bitrate 6Mbps
param *.**.nic.mac1609_4.useAcks true
param *.**.nic.mac1609_4.ackErrorRate 0.50
param *.**.nic.mac1609_4.frameErrorRate 0.50
param *.**.nic.phy80211p.minPowerLevel -94dBm
param *.**.nic.phy80211p.maxTXPower 100mW
param *.**.nic.phy80211p.useNoiseFloor true
param *.**.nic.phy80211p.noiseFloor -95dBm
param *.**.nic.phy80211p.decider "xmldoc(\"config.xml\")"
param *.**.nic.phy80211p.analogueModels "xmldoc(\"config.xml\")"
param *.**.nic.phy80211p.usePropagationDelay true
param *.node[*].mobility.x 0
param *.node[*].mobility.y 0
param *.node[*].mobility.z 1.895
param **.seed 0
param *.manager.configFile "\"./sumocfg/freeway.sumo.cfg\""
param **.numberOfCars 5
param **.numberOfCarsPerPlatoon 5
param **.numberOfLanes 1
param **.controllerXi 1
param **.controllerOmegaN 0.2
param *.node[*].helper_type "\"PositionHelper\""
param *.node[*].scenario.caccC1 0.5
param *.node[*].scenario.caccXi 1
param *.node[*].scenario.caccOmegaN "0.2 Hz"
param *.node[*].scenario.caccSpacing "5 m"
param *.node[*].scenario.engineTau "0.5 s"
param *.node[*].scenario.ploegH 0.5s
param *.node[*].scenario.ploegKp 0.2
param *.node[*].scenario.ploegKd 0.7
param *.node[*].scenario.useRealisticEngine false
param **.numericController 0
param *.node[*].scenario.controller "\"CACC\""
param *.node[*].scenario.accHeadway "0.1 s"
param *.node[*].scenario.leaderHeadway 1.2s
param *.node[*].scenario.leaderSpeed 100kmph
param *.node[*].appl_type "\"GeneralPlatooningApp\""
param *.node[*].appl.leaveManeuver "\"Leader_Leave\""
param *.node[*].protocol_type "\"SimplePlatooningBeaconing\""
param *.node[*].prot.beaconingInterval 0.1s
param *.node[*].prot.priority 2
param *.node[*].prot.packetSize 200
param *.node[*].unicast.packetLossRate 0
param **.traffic_type "\"PlatoonsTrafficManager\""
param **.traffic.platoonInsertTime "1 s"
param **.traffic.platoonInsertSpeed 100kmph
param **.traffic.nCars 5
param **.traffic.platoonSize 5
param **.traffic.nLanes 1
param **.traffic.platooningVType "\"vtypeauto\""
param **.traffic.platoonInsertDistance "5 m"
param **.traffic.platoonInsertHeadway "0 s"
param **.traffic.platoonLeaderHeadway 1.2s

vector 0 Highway.node[0].appl distance ETV
vector 1 Highway.node[0].appl relativeSpeed ETV
vector 2 Highway.node[0].appl nodeId ETV
vector 3 Highway.node[0].appl acceleration ETV
vector 4 Highway.node[0].appl controllerAcceleration ETV
vector 5 Highway.node[0].appl speed ETV
vector 6 Highway.node[0].appl posx ETV
vector 7 Highway.node[0].appl posy ETV
vector 8 Highway.node[1].appl distance ETV
vector 9 Highway.node[1].appl relativeSpeed ETV
vector 10 Highway.node[1].appl nodeId ETV
vector 11 Highway.node[1].appl acceleration ETV
vector 12 Highway.node[1].appl controllerAcceleration ETV
vector 13 Highway.node[1].appl speed ETV
vector 14 Highway.node[1].appl posx ETV
vector 15 Highway.node[1].appl posy ETV
vector 16 Highway.node[2].appl distance ETV
vector 17 Highway.node[2].appl relativeSpeed ETV
vector 18 Highway.node[2].appl nodeId ETV
vector 19 Highway.node[2].appl acceleration ETV
vector 20 Highway.node[2].appl controllerAcceleration ETV
vector 21 Highway.node[2].appl speed ETV
vector 22 Highway.node[2].appl posx ETV
vector 23 Highway.node[2].appl posy ETV
vector 24 Highway.node[3].appl distance ETV
vector 25 Highway.node[3].appl relativeSpeed ETV
vector 26 Highway.node[3].appl nodeId ETV
vector 27 Highway.node[3].appl acceleration ETV
vector 28 Highway.node[3].appl controllerAcceleration ETV
vector 29 Highway.node[3].appl speed ETV
vector 30 Highway.node[3].appl posx ETV
vector 31 Highway.node[3].appl posy ETV
vector 32 Highway.node[4].appl distance ETV
vector 33 Highway.node[4].appl relativeSpeed ETV
vector 34 Highway.node[4].appl nodeId ETV
vector 35 Highway.node[4].appl acceleration ETV
vector 36 Highway.node[4].appl controllerAcceleration ETV
vector 37 Highway.node[4].appl speed ETV
vector 38 Highway.node[4].appl posx ETV
vector 39 Highway.node[4].appl posy ETV
vector 40 Highway.node[2].prot frontDelay ETV
vector 41 Highway.node[2].prot frontDelayId ETV
vector 42 Highway.node[4].prot frontDelay ETV
vector 43 Highway.node[4].prot frontDelayId ETV
vector 44 Highway.node[3].prot leaderDelay ETV
vector 45 Highway.node[3].prot leaderDelayId ETV
vector 46 Highway.node[1].prot leaderDelay ETV
vector 47 Highway.node[1].prot leaderDelayId ETV
vector 48 Highway.node[1].prot frontDelay ETV
vector 49 Highway.node[1].prot frontDelayId ETV
vector 50 Highway.node[3].prot frontDelay ETV
vector 51 Highway.node[3].prot frontDelayId ETV
vector 52 Highway.node[2].prot leaderDelay ETV
vector 53 Highway.node[2].prot leaderDelayId ETV
vector 54 Highway.node[4].prot leaderDelay ETV
vector 55 Highway.node[4].prot leaderDelayId ETV
vector 56 Highway.node[0].prot nodeId ETV
vector 57 Highway.node[0].prot busyTime ETV
vector 58 Highway.node[0].prot collisions ETV
vector 59 Highway.node[1].prot nodeId ETV
vector 60 Highway.node[1].prot busyTime ETV
vector 61 Highway.node[1].prot collisions ETV
vector 62 Highway.node[2].prot nodeId ETV
vector 63 Highway.node[2].prot busyTime ETV
vector 64 Highway.node[2].prot collisions ETV
vector 65 Highway.node[3].prot nodeId ETV
vector 66 Highway.node[3].prot busyTime ETV
vector 67 Highway.node[3].prot collisions ETV
vector 68 Highway.node[4].prot nodeId ETV
vector 69 Highway.node[4].prot busyTime ETV
vector 70 Highway.node[4].prot collisions ETV
vector 71 Highway.node[0].prot leaderDelay ETV
vector 72 Highway.node[0].prot leaderDelayId ETV
4	113	1.11	-0.00218518
4	311	1.21	-0.00213419
4	506	1.31	-0.00205408
4	704	1.41	-0.00195152
4	908	1.51	-0.00183238
4	1103	1.61	-0.00170178
4	1310	1.71	-0.00156412
4	1502	1.81	-0.00142314
4	1694	1.91	-0.00128196
4	1909	2.01	-0.00114315
4	2092	2.11	-0.00100877
4	2281	2.21	-0.000880447
4	2488	2.31	-0.000759381
4	2686	2.41	-0.000646445
4	2881	2.51	-0.000542204
4	3070	2.61	-0.000446965
4	3274	2.71	-0.000360819
4	3481	2.81	-0.000283678
4	3664	2.91	-0.000215307
4	3867	3.01	-0.000155357
4	4050	3.11	-0.000103391
4	4239	3.21	-5.89069e-05
4	4431	3.31	-2.13575e-05
4	4623	3.41	9.82919e-06
4	4812	3.51	3.52368e-05
4	5004	3.61	5.54479e-05
4	5205	3.71	7.10335e-05
4	5397	3.81	8.25451e-05
4	5595	3.91	9.05081e-05
4	5798	4.01	9.54172e-05
4	5990	4.11	9.7733e-05
4	6182	4.21	9.78798e-05
4	6371	4.31	9.62447e-05
4	6563	4.41	9.31771e-05
4	6764	4.51	8.89894e-05
4	6959	4.61	8.39579e-05
4	7154	4.71	7.83245e-05
4	7364	4.81	7.22983e-05
4	7550	4.91	6.6058e-05
4	7759	5.01	5.9754e-05
4	7960	5.11	5.35107e-05
4	8158	5.21	4.74294e-05
4	8356	5.31	4.15898e-05
4	8548	5.41	3.60534e-05
4	8746	5.51	3.0865e-05
4	8947	5.61	2.60551e-05
4	9127	5.71	2.16419e-05
4	9334	5.81	1.76335e-05
4	9529	5.91	1.40289e-05
4	9717	6.01	1.08202e-05
4	9918	6.11	7.99392e-06
4	10119	6.21	5.532e-06
4	10308	6.31	3.41315e-06
4	10497	6.41	1.61374e-06
4	10686	6.51	1.08654e-07
4	10896	6.61	-1.12799e-06
4	11103	6.71	-2.12224e-06
4	11295	6.81	-2.89981e-06
4	11490	6.91	-3.48567e-06
4	11699	7.01	-3.90376e-06
4	11882	7.11	-4.17673e-06
4	12080	7.21	-4.32574e-06
4	12260	7.31	-4.3704e-06
4	12458	7.41	-4.32865e-06
4	12653	7.51	-4.21676e-06
4	12839	7.61	-4.04934e-06
4	13043	7.71	-3.83937e-06
4	13238	7.81	-3.59826e-06
4	13430	7.91	-3.33592e-06
4	13633	8.01	-3.06089e-06
4	13837	8.11	-2.78036e-06
4	14035	8.21	-2.50036e-06
4	14233	8.31	-2.22582e-06
4	14428	8.41	-1.96068e-06
4	14620	8.51	-1.708e-06
4	14818	8.61	-1.47009e-06
4	15007	8.71	-1.24855e-06
4	15205	8.81	-1.04441e-06
4	15403	8.91	-8.58219e-07
4	15606	9.01	-6.90082e-07
4	15804	9.11	-5.39774e-07
4	15996	9.21	-4.06787e-07
4	16194	9.31	-2.90396e-07
4	16386	9.41	-1.89707e-07
4	16578	9.51	-1.03704e-07
4	16773	9.61	-3.12909e-08
4	16974	9.71	2.86736e-08
4	17160	9.81	7.73515e-08
4	17352	9.91	1.15897e-07
4	17549	10.01	1.45439e-07
4	17738	10.11	1.67065e-07
4	17927	10.21	1.81809e-07
4	18134	10.31	1.90644e-07
4	18326	10.41	1.94472e-07
4	18521	10.51	1.94125e-07
4	18713	10.61	1.90358e-07
4	18890	10.71	1.83853e-07
4	19088	10.81	1.75219e-07
4	19283	10.91	1.64994e-07
4	19484	11.01	1.53647e-07
4	20838	11.11	1.41582e-07
4	21024	11.21	1.29146e-07
4	21222	11.31	1.16627e-07
4	21423	11.41	1.04266e-07
4	21624	11.51	9.22547e-08
4	21816	11.61	8.07471e-08
4	21999	11.71	6.98584e-08
4	22185	11.81	5.96732e-08
4	22377	11.91	5.02471e-08
4	22577	12.01	4.16133e-08
4	22772	12.11	3.37845e-08
4	22964	12.21	2.67558e-08
4	23153	12.31	2.05102e-08
4	23348	12.41	1.50187e-08
4	23534	12.51	1.02442e-08
4	23738	12.61	6.14406e-09
4	23933	12.71	2.67022e-09
4	24134	12.81	-2.27374e-10
4	24320	12.91	-2.60059e-09
4	24523	13.01	-4.50058e-09
4	24727	13.11	-5.97851e-09
4	24925	13.21	-7.08376e-09
4	25114	13.31	-7.86322e-09
4	25303	13.41	-8.36167e-09
4	25492	13.51	-8.62066e-09
4	25687	13.61	-8.67857e-09
4	25888	13.71	-8.57057e-09
4	26086	13.81	-8.32792e-09
4	26278	13.91	-7.97975e-09
4	26481	14.01	-7.55094e-09
4	26676	14.11	-7.06351e-09
4	26877	14.21	-6.53699e-09
4	27084	14.31	-5.98774e-09
4	27288	14.41	-5.42997e-09
4	27486	14.51	-4.87468e-09
4	27678	14.61	-4.33182e-09
4	27870	14.71	-3.80886e-09
4	28062	14.81	-3.31148e-09
4	28254	14.91	-2.8443e-09
4	28457	15.01	-2.40981e-09
4	28664	15.11	-2.01013e-09
4	28856	15.21	-1.64633e-09
4	29060	15.31	-1.31806e-09
4	29261	15.41	-1.02531e-09
4	29456	15.51	-7.66676e-10
4	29639	15.61	-5.40723e-10
4	29843	15.71	-3.46034e-10
4	30044	15.81	-1.79767e-10
4	30242	15.91	-4.01457e-11
4	30451	16.01	7.49623e-11
4	30643	16.11	1.68043e-10
4	30841	16.21	2.41585e-10
4	31030	16.31	2.97362e-10
4	31228	16.41	3.37863e-10
4	31420	16.51	3.64864e-10
4	31621	16.61	3.80851e-10
4	31816	16.71	3.86891e-10
4	32011	16.81	3.84759e-10
4	32218	16.91	3.76232e-10
4	32427	17.01	3.62377e-10
4	32628	17.11	3.44613e-10
4	32817	17.21	3.24007e-10
4	33015	17.31	3.00915e-10
4	33225	17.41	2.76756e-10
4	33408	17.51	2.52243e-10
4	33609	17.61	2.27374e-10
4	33810	17.71	2.0286e-10
4	34002	17.81	1.79057e-10
4	34191	17.91	1.56319e-10
4	34385	18.01	1.35003e-10
4	34580	18.11	1.15108e-10
4	34781	18.21	9.66338e-11
4	34964	18.31	7.99361e-11
4	35165	18.41	6.46594e-11
4	35354	18.51	5.08038e-11
4	35543	18.61	3.83693e-11
4	35741	18.71	2.73559e-11
4	35936	18.81	1.77636e-11
4	36143	18.91	9.59233e-12
4	36346	19.01	2.84217e-12
4	36535	19.11	-2.84217e-12
4	36730	19.21	-7.4607e-12
4	36922	19.31	-1.13687e-11
4	37123	19.41	-1.42109e-11
4	37312	19.51	-1.63425e-11
4	37507	19.61	-1.77636e-11
4	37699	19.71	-1.84741e-11
4	37903	19.81	-1.88294e-11
4	38095	19.91	-1.88294e-11
4	38295	20.01	-1.88294e-11
4	38496	20.11	-1.81188e-11
4	38697	20.21	-1.7053e-11
4	38889	20.31	-1.63425e-11
4	39081	20.41	-1.52767e-11
4	39282	20.51	-1.45661e-11
4	39477	20.61	-1.35003e-11
4	39666	20.71	-1.27898e-11
4	39852	20.81	-1.1724e-11
4	40044	20.91	-1.10134e-11
4	40244	21.01	-9.9476e-12
4	40436	21.11	-9.23706e-12
4	40634	21.21	-8.17124e-12
4	40832	21.31	-7.4607e-12
4	41033	21.41	-6.39488e-12
4	41231	21.51	-5.68434e-12
4	41432	21.61	-4.61853e-12
4	41627	21.71	-3.90799e-12
4	41822	21.81	-2.84217e-12
4	42023	21.91	-2.13163e-12
4	42220	22.01	-1.06581e-12
4	42406	22.11	-3.55271e-13
4	42586	22.21	7.10543e-13
4	42775	22.31	1.42109e-12
4	42964	22.41	2.13163e-12
4	43171	22.51	2.84217e-12
4	43363	22.61	3.19744e-12
4	43561	22.71	3.90799e-12
4	43756	22.81	4.26326e-12
4	43954	22.91	4.61853e-12
4	44148	23.01	5.32907e-12
4	44340	23.11	5.68434e-12
4	44535	23.21	5.68434e-12
4	44733	23.31	6.03961e-12
4	44925	23.41	6.39488e-12
4	45422	23.51	6.75016e-12
4	45620	23.61	6.75016e-12
4	45815	23.71	7.10543e-12
4	46010	23.81	7.10543e-12
4	46190	23.91	7.4607e-12
4	46396	24.01	7.4607e-12
4	46597	24.11	7.81597e-12
4	46801	24.21	7.81597e-12
4	46987	24.31	7.81597e-12
4	47185	24.41	7.81597e-12
4	47383	24.51	8.17124e-12
4	47575	24.61	8.17124e-12
4	47770	24.71	8.17124e-12
4	47962	24.81	8.17124e-12
4	48157	24.91	8.17124e-12
4	48354	25.01	8.52651e-12
4	48555	25.11	8.52651e-12
4	48750	25.21	8.52651e-12
4	48936	25.31	8.52651e-12
4	49140	25.41	8.52651e-12
4	49326	25.51	8.52651e-12
4	49512	25.61	8.52651e-12
4	49701	25.71	8.52651e-12
4	49893	25.81	8.52651e-12
4	50100	25.91	8.52651e-12
4	50303	26.01	8.88178e-12
4	50492	26.11	8.88178e-12
4	50687	26.21	8.88178e-12
4	50873	26.31	8.88178e-12
4	51068	26.41	8.88178e-12
4	51254	26.51	8.88178e-12
4	51452	26.61	8.88178e-12
4	51647	26.71	8.88178e-12
4	51854	26.81	8.88178e-12
4	52043	26.91	8.88178e-12
4	52243	27.01	8.88178e-12
4	52438	27.11	8.88178e-12
4	52633	27.21	8.88178e-12
4	52816	27.31	8.88178e-12
4	53020	27.41	8.88178e-12
4	53218	27.51	8.88178e-12
4	53413	27.61	8.88178e-12
4	53599	27.71	8.88178e-12
4	53797	27.81	8.88178e-12
4	53995	27.91	8.88178e-12
4	54204	28.01	8.88178e-12
4	54402	28.11	8.88178e-12
4	54582	28.21	8.88178e-12
4	54771	28.31	8.88178e-12
4	54969	28.41	8.88178e-12
4	55176	28.51	8.88178e-12
4	55359	28.61	8.88178e-12
4	55563	28.71	8.88178e-12
4	55758	28.81	8.88178e-12
4	55950	28.91	8.88178e-12
4	56147	29.01	8.88178e-12
4	56330	29.11	8.88178e-12
4	56531	29.21	8.88178e-12
4	56723	29.31	8.88178e-12
4	56912	29.41	8.88178e-12
4	57113	29.51	8.88178e-12
4	57305	29.61	8.88178e-12
4	57488	29.71	8.88178e-12
4	57680	29.81	8.88178e-12
4	57872	29.91	8.88178e-12
4	58078	30.01	8.88178e-12
4	58282	30.11	8.88178e-12
4	58486	30.21	8.88178e-12
4	58675	30.31	8.88178e-12
4	58882	30.41	8.88178e-12
4	59077	30.51	8.88178e-12
4	59269	30.61	8.88178e-12
4	59470	30.71	8.88178e-12
4	59650	30.81	8.88178e-12
4	60374	30.91	8.88178e-12
4	60571	31.01	8.88178e-12
4	60763	31.11	8.88178e-12
4	60952	31.21	8.88178e-12
4	61150	31.31	8.88178e-12
4	61333	31.41	8.88178e-12
4	61528	31.51	8.88178e-12
4	61729	31.61	8.88178e-12
4	61924	31.71	8.88178e-12
4	62125	31.81	8.88178e-12
4	62332	31.91	8.88178e-12
4	62526	32.01	8.88178e-12
4	62724	32.11	8.88178e-12
4	62913	32.21	8.88178e-12
4	63111	32.31	8.88178e-12
4	63306	32.41	8.88178e-12
4	63513	32.51	8.88178e-12
4	63696	32.61	8.88178e-12
4	63891	32.71	8.88178e-12
4	64080	32.81	8.88178e-12
4	64272	32.91	8.88178e-12
4	64487	33.01	8.88178e-12
4	64676	33.11	8.88178e-12
4	64871	33.21	8.88178e-12
4	65060	33.31	8.88178e-12
4	65249	33.41	8.88178e-12
4	65444	33.51	8.88178e-12
4	65639	33.61	8.88178e-12
4	65837	33.71	8.88178e-12
4	66023	33.81	8.88178e-12
4	66215	33.91	8.88178e-12
4	66400	34.01	8.88178e-12
4	66595	34.11	8.88178e-12
4	66790	34.21	8.88178e-12
4	66988	34.31	8.88178e-12
4	67183	34.41	8.88178e-12
4	67390	34.51	8.88178e-12
4	67585	34.61	8.88178e-12
4	67768	34.71	8.88178e-12
4	67960	34.81	8.88178e-12
4	68161	34.91	8.88178e-12
4	68358	35.01	8.88178e-12
4	68550	35.11	8.88178e-12
4	68748	35.21	8.88178e-12
4	68943	35.31	8.88178e-12
4	69144	35.41	8.88178e-12
4	69339	35.51	8.88178e-12
4	69531	35.61	8.88178e-12
4	69720	35.71	8.88178e-12
4	69921	35.81	8.88178e-12
4	70104	35.91	8.88178e-12
4	70304	36.01	8.88178e-12
4	70499	36.11	8.88178e-12
4	70703	36.21	8.88178e-12
4	70904	36.31	8.88178e-12
4	71096	36.41	8.88178e-12
4	71291	36.51	8.88178e-12
4	71489	36.61	8.88178e-12
4	71684	36.71	8.88178e-12
4	71882	36.81	8.88178e-12
4	72074	36.91	8.88178e-12
4	72274	37.01	8.88178e-12
4	72469	37.11	8.88178e-12
4	72667	37.21	8.88178e-12
4	72859	37.31	8.88178e-12
4	73045	37.41	8.88178e-12
4	73246	37.51	8.88178e-12
4	73459	37.61	8.88178e-12
4	73639	37.71	8.88178e-12
4	73834	37.81	8.88178e-12
4	74014	37.91	8.88178e-12
4	74214	38.01	8.88178e-12
4	74400	38.11	8.88178e-12
4	74592	38.21	8.88178e-12
4	74796	38.31	8.88178e-12
4	74988	38.41	8.88178e-12
4	75189	38.51	8.88178e-12
4	75375	38.61	8.88178e-12
4	75570	38.71	8.88178e-12
4	75759	38.81	8.88178e-12
4	75963	38.91	8.88178e-12
4	76151	39.01	8.88178e-12
4	76346	39.11	8.88178e-12
4	76541	39.21	8.88178e-12
4	76727	39.31	8.88178e-12
4	76928	39.41	8.88178e-12
4	77126	39.51	8.88178e-12
4	77324	39.61	8.88178e-12
4	77513	39.71	8.88178e-12
4	77702	39.81	8.88178e-12
4	77891	39.91	8.88178e-12
4	78097	40.01	8.88178e-12
4	78289	40.11	8.88178e-12
4	78484	40.21	8.88178e-12
4	78679	40.31	8.88178e-12
4	78877	40.41	8.88178e-12
4	79063	40.51	8.88178e-12
4	79270	40.61	8.88178e-12
4	79462	40.71	8.88178e-12
4	79666	40.81	8.88178e-12
4	79861	40.91	8.88178e-12
4	80055	41.01	8.88178e-12
4	80259	41.11	8.88178e-12
4	80451	41.21	8.88178e-12
4	80643	41.31	8.88178e-12
4	80844	41.41	8.88178e-12
4	81033	41.51	8.88178e-12
4	81228	41.61	8.88178e-12
4	81432	41.71	8.88178e-12
4	81633	41.81	8.88178e-12
4	81834	41.91	8.88178e-12
4	82022	42.01	8.88178e-12
4	82217	42.11	8.88178e-12
4	82412	42.21	8.88178e-12
4	82613	42.31	8.88178e-12
4	82823	42.41	8.88178e-12
4	83012	42.51	8.88178e-12
4	83207	42.61	8.88178e-12
4	83411	42.71	8.88178e-12
4	83606	42.81	8.88178e-12
4	83792	42.91	8.88178e-12
4	83989	43.01	8.88178e-12
4	84184	43.11	8.88178e-12
4	84385	43.21	8.88178e-12
4	84580	43.31	8.88178e-12
4	84781	43.41	8.88178e-12
4	84985	43.51	8.88178e-12
4	85168	43.61	8.88178e-12
4	85360	43.71	8.88178e-12
4	85552	43.81	8.88178e-12
4	85732	43.91	8.88178e-12
4	85944	44.01	8.88178e-12
4	86148	44.11	8.88178e-12
4	86337	44.21	8.88178e-12
4	86529	44.31	8.88178e-12
4	86706	44.41	8.88178e-12
4	86892	44.51	8.88178e-12
4	87087	44.61	8.88178e-12
4	87285	44.71	8.88178e-12
4	87477	44.81	8.88178e-12
4	87666	44.91	8.88178e-12
4	87872	45.01	8.88178e-12
4	88067	45.11	8.88178e-12
4	88271	45.21	8.88178e-12
4	88469	45.31	8.88178e-12
4	88658	45.41	8.88178e-12
4	88847	45.51	8.88178e-12
4	89412	45.61	8.88178e-12
4	89598	45.71	8.88178e-12
4	89778	45.81	8.88178e-12
4	89970	45.91	8.88178e-12
4	90167	46.01	8.88178e-12
4	90365	46.11	8.88178e-12
4	90566	46.21	8.88178e-12
4	90779	46.31	8.88178e-12
4	90977	46.41	8.88178e-12
4	91175	46.51	8.88178e-12
4	91367	46.61	8.88178e-12
4	91568	46.71	8.88178e-12
4	91760	46.81	8.88178e-12
4	91958	46.91	8.88178e-12
4	92155	47.01	8.88178e-12
4	92356	47.11	8.88178e-12
4	92551	47.21	8.88178e-12
4	92752	47.31	8.88178e-12
4	92944	47.41	8.88178e-12
4	93142	47.51	8.88178e-12
4	93319	47.61	8.88178e-12
4	93505	47.71	8.88178e-12
4	93697	47.81	8.88178e-12
4	93895	47.91	8.88178e-12
4	94089	48.01	8.88178e-12
4	94284	48.11	8.88178e-12
4	94470	48.21	8.88178e-12
4	94662	48.31	8.88178e-12
4	94854	48.41	8.88178e-12
4	95046	48.51	8.88178e-12
4	95241	48.61	8.88178e-12
4	95427	48.71	8.88178e-12
4	95622	48.81	8.88178e-12
4	95817	48.91	8.88178e-12
4	96026	49.01	8.88178e-12
4	96221	49.11	8.88178e-12
4	96416	49.21	8.88178e-12
4	96611	49.31	8.88178e-12
4	96803	49.41	8.88178e-12
4	97001	49.51	8.88178e-12
4	97196	49.61	8.88178e-12
4	97397	49.71	8.88178e-12
4	97586	49.81	8.88178e-12
4	97775	49.91	8.88178e-12
4	97978	50.01	8.88178e-12
4	98170	50.11	8.88178e-12
4	98368	50.21	8.88178e-12
4	98569	50.31	8.88178e-12
4	98773	50.41	8.88178e-12
4	98977	50.51	8.88178e-12
4	99172	50.61	8.88178e-12
4	99361	50.71	8.88178e-12
4	99556	50.81	8.88178e-12
4	99748	50.91	8.88178e-12
4	99945	51.01	8.88178e-12
4	100137	51.11	8.88178e-12
4	100323	51.21	8.88178e-12
4	100524	51.31	8.88178e-12
4	100716	51.41	8.88178e-12
4	100917	51.51	8.88178e-12
4	101109	51.61	8.88178e-12
4	101304	51.71	8.88178e-12
4	101508	51.81	8.88178e-12
4	101700	51.91	8.88178e-12
4	101900	52.01	8.88178e-12
4	102089	52.11	8.88178e-12
4	102299	52.21	8.88178e-12
4	102497	52.31	8.88178e-12
4	102689	52.41	8.88178e-12
4	102896	52.51	8.88178e-12
4	103091	52.61	8.88178e-12
4	103283	52.71	8.88178e-12
4	103481	52.81	8.88178e-12
4	103673	52.91	8.88178e-12
4	103876	53.01	8.88178e-12
4	104071	53.11	8.88178e-12
4	104260	53.21	8.88178e-12
4	104458	53.31	8.88178e-12
4	104662	53.41	8.88178e-12
4	104842	53.51	8.88178e-12
4	105037	53.61	8.88178e-12
4	105229	53.71	8.88178e-12
4	105415	53.81	8.88178e-12
4	105622	53.91	8.88178e-12
4	105822	54.01	8.88178e-12
4	106020	54.11	8.88178e-12
4	106221	54.21	8.88178e-12
4	106419	54.31	8.88178e-12
4	106611	54.41	8.88178e-12
4	106800	54.51	8.88178e-12
4	106980	54.61	8.88178e-12
4	107166	54.71	8.88178e-12
4	107361	54.81	8.88178e-12
4	107562	54.91	8.88178e-12
4	107762	55.01	8.88178e-12
4	107960	55.11	8.88178e-12
4	108152	55.21	8.88178e-12
4	108347	55.31	8.88178e-12
4	108539	55.41	8.88178e-12
4	108746	55.51	8.88178e-12
4	108950	55.61	8.88178e-12
4	109151	55.71	8.88178e-12
4	109346	55.81	8.88178e-12
4	109538	55.91	8.88178e-12
4	109747	56.01	8.88178e-12
4	109942	56.11	8.88178e-12
4	110140	56.21	8.88178e-12
4	110329	56.31	8.88178e-12
4	110521	56.41	8.88178e-12
4	110713	56.51	8.88178e-12
4	110896	56.61	8.88178e-12
4	111094	56.71	8.88178e-12
4	111289	56.81	8.88178e-12
4	111478	56.91	8.88178e-12
4	111669	57.01	8.88178e-12
4	111870	57.11	8.88178e-12
4	112056	57.21	8.88178e-12
4	112254	57.31	8.88178e-12
4	112443	57.41	8.88178e-12
4	112629	57.51	8.88178e-12
4	112818	57.61	8.88178e-12
4	113013	57.71	8.88178e-12
4	113205	57.81	8.88178e-12
4	113403	57.91	8.88178e-12
4	113600	58.01	8.88178e-12
4	114077	58.11	8.88178e-12
4	114275	58.21	8.88178e-12
4	114479	58.31	8.88178e-12
4	114680	58.41	8.88178e-12
4	114878	58.51	8.88178e-12
4	115070	58.61	8.88178e-12
4	115265	58.71	8.88178e-12
4	115457	58.81	8.88178e-12
4	115643	58.91	8.88178e-12
4	115849	59.01	8.88178e-12
4	116047	59.11	8.88178e-12
4	116245	59.21	8.88178e-12
4	116440	59.31	8.88178e-12
4	116629	59.41	8.88178e-12
4	116827	59.51	8.88178e-12
4	117016	59.61	8.88178e-12
4	117223	59.71	8.88178e-12
4	117412	59.81	8.88178e-12
4	117610	59.91	8.88178e-12
4	117825	60.01	8.88178e-12
4	118029	60.11	8.88178e-12
4	118227	60.21	8.88178e-12
4	118422	60.31	8.88178e-12
4	118626	60.41	8.88178e-12
4	118833	60.51	8.88178e-12
4	119031	60.61	8.88178e-12
4	119232	60.71	8.88178e-12
4	119406	60.81	8.88178e-12
4	119607	60.91	8.88178e-12
4	119801	61.01	8.88178e-12
4	119987	61.11	8.88178e-12
4	120173	61.21	8.88178e-12
4	120377	61.31	8.88178e-12
4	120578	61.41	8.88178e-12
4	120764	61.51	8.88178e-12
4	120962	61.61	8.88178e-12
4	121163	61.71	8.88178e-12
4	121367	61.81	8.88178e-12
4	121562	61.91	8.88178e-12
4	121756	62.01	8.88178e-12
4	121951	62.11	8.88178e-12
4	122143	62.21	8.88178e-12
4	122332	62.31	8.88178e-12
4	122527	62.41	8.88178e-12
4	122734	62.51	8.88178e-12
4	122938	62.61	8.88178e-12
4	123124	62.71	8.88178e-12
4	123319	62.81	8.88178e-12
4	123520	62.91	8.88178e-12
4	123717	63.01	8.88178e-12
4	123900	63.11	8.88178e-12
4	124104	63.21	8.88178e-12
4	124302	63.31	8.88178e-12
4	124488	63.41	8.88178e-12
4	124686	63.51	8.88178e-12
4	124866	63.61	8.88178e-12
4	125067	63.71	8.88178e-12
4	125259	63.81	8.88178e-12
4	125466	63.91	8.88178e-12
4	125678	64.01	8.88178e-12
4	125867	64.11	8.88178e-12
4	126074	64.21	8.88178e-12
4	126269	64.31	8.88178e-12
4	126467	64.41	8.88178e-12
4	126665	64.51	8.88178e-12
4	126851	64.61	8.88178e-12
4	127037	64.71	8.88178e-12
4	127238	64.81	8.88178e-12
4	127439	64.91	8.88178e-12
4	127651	65.01	8.88178e-12
4	127837	65.11	8.88178e-12
4	128032	65.21	8.88178e-12
4	128230	65.31	8.88178e-12
4	128425	65.41	8.88178e-12
4	128614	65.51	8.88178e-12
4	128809	65.61	8.88178e-12
4	129010	65.71	8.88178e-12
4	129202	65.81	8.88178e-12
4	129400	65.91	8.88178e-12
4	131543	66.01	1.5
4	131735	66.11	1.5
4	131930	66.21	1.5
4	132125	66.31	1.5
4	132326	66.41	1.5
4	132521	66.51	1.5
4	132716	66.61	1.5
4	132905	66.71	1.5
4	133103	66.81	1.5
4	133289	66.91	1.5
4	133495	67.01	1.5
4	133705	67.11	1.5
4	133906	67.21	1.5
4	134113	67.31	1.5
4	134305	67.41	1.5
4	134497	67.51	1.5
4	134695	67.61	1.5
4	134890	67.71	1.5
4	135094	67.81	1.5
4	135289	67.91	1.5
4	135495	68.01	1.5
4	135696	68.11	1.5
4	135879	68.21	1.5
4	136077	68.31	1.5
4	136284	68.41	1.5
4	136473	68.51	1.5
4	136668	68.61	1.5
4	136866	68.71	1.5
4	137061	68.81	1.5
4	137253	68.91	1.5
4	137456	69.01	1.5
4	137648	69.11	1.5
4	137840	69.21	1.5
4	138041	69.31	1.5
4	138227	69.41	1.5
4	138413	69.51	1.5
4	138605	69.61	1.5
4	138791	69.71	1.5
4	138992	69.81	1.5
4	139184	69.91	1.5
4	139384	70.01	1.5
4	139579	70.11	1.5
4	139768	70.21	1.5
4	139957	70.31	1.5
4	140155	70.41	1.5
4	140368	70.51	1.5
4	140557	70.61	1.5
4	140752	70.71	1.5
4	140956	70.81	1.5
4	141139	70.91	1.5
4	141330	71.01	1.49327
4	141525	71.11	1.34381
4	141738	71.21	1.1971
4	141921	71.31	1.05527
4	142110	71.41	0.919998
4	142317	71.51	0.792526
4	142509	71.61	0.67374
4	142710	71.71	0.56421
4	142896	71.81	0.464237
4	143091	71.91	0.373899
4	143291	72.01	0.293083
4	143495	72.11	0.22153
4	143690	72.21	0.158858
4	143894	72.31	0.104596
4	144095	72.41	0.0582056
4	144290	72.51	0.0191058
4	144491	72.61	-0.0133124
4	144686	72.71	-0.0396678
4	144881	72.81	-0.060577
4	145079	72.91	-0.0766433
4	145291	73.01	-0.0884486
4	145492	73.11	-0.0965466
4	145693	73.21	-0.101458
4	145882	73.31	-0.103668
4	146074	73.41	-0.103621
4	146275	73.51	-0.101724
4	146476	73.61	-0.0983432
4	146671	73.71	-0.093806
4	146869	73.81	-0.0884014
4	147073	73.91	-0.0823822
4	147273	74.01	-0.0759668
4	147465	74.11	-0.0693414
4	147654	74.21	-0.0626626
4	147843	74.31	-0.0560597
4	148038	74.41	-0.0496375
4	148236	74.51	-0.0434788
4	148431	74.61	-0.0376467
4	148638	74.71	-0.0321872
4	148845	74.81	-0.0271311
4	149037	74.91	-0.0224968
4	149237	75.01	-0.0182915
4	149432	75.11	-0.0145136
4	149627	75.21	-0.0111541
4	149816	75.31	-0.00819812
4	150005	75.41	-0.00562613
4	150194	75.51	-0.00341529
4	150398	75.61	-0.00154038
4	150587	75.71	2.53345e-05
4	150788	75.81	0.00130931
4	150986	75.91	0.00233913
4	151180	76.01	0.00314199
4	151378	76.11	0.00374426
4	151573	76.21	0.00417117
4	151759	76.31	0.00444658
4	151954	76.41	0.00459275
4	152158	76.51	0.00463029
4	152347	76.61	0.00457804
4	152542	76.71	0.00445306
4	152731	76.81	0.00427067
4	152926	76.91	0.00404444
4	153129	77.01	0.00378632
4	153321	77.11	0.00350666
4	153510	77.21	0.00321434
4	153708	77.31	0.00291689
4	153897	77.41	0.00262056
4	154086	77.51	0.00233046
4	154272	77.61	0.00205068
4	154464	77.71	0.00178438
4	154650	77.81	0.00153392
4	154854	77.91	0.00130095
4	155057	78.01	0.00108649
4	155252	78.11	0.000891074
4	155450	78.21	0.000714783
4	155654	78.31	0.000557342
4	155846	78.41	0.00041819
4	156020	78.51	0.000296536
4	156203	78.61	0.000191418
4	156398	78.71	0.000101752
4	156608	78.81	2.63698e-05
4	156815	78.91	-3.5943e-05
4	157006	79.01	-8.64166e-05
4	157207	79.11	-0.000126273
4	157408	79.21	-0.000156703
4	157612	79.31	-0.000178857
4	157807	79.41	-0.000193822
4	158008	79.51	-0.000202623
4	158203	79.61	-0.000206208
4	158407	79.71	-0.000205451
4	158599	79.81	-0.000201145
4	158785	79.91	-0.000194004
4	158982	80.01	-0.000184667
4	159180	80.11	-0.000173695
4	159384	80.21	-0.000161579
4	159576	80.31	-0.000148742
4	159762	80.41	-0.000135543
4	159969	80.51	-0.000122284
4	160170	80.61	-0.000109214
4	160371	80.71	-9.65327e-05
4	160569	80.81	-8.43985e-05
4	160770	80.91	-7.29305e-05
4	160955	81.01	-6.22146e-05
4	161144	81.11	-5.23081e-05
4	161336	81.21	-4.3243e-05
4	161522	81.31	-3.50309e-05
4	161711	81.41	-2.76658e-05
4	161900	81.51	-2.11277e-05
4	162095	81.61	-1.53852e-05
4	162296	81.71	-1.03984e-05
4	162479	81.81	-6.12097e-06
4	162677	81.91	-2.50221e-06
4	162877	82.01	5.11305e-07
4	163066	82.11	2.97427e-06
4	163264	82.21	4.94141e-06
4	163468	82.31	6.46652e-06
4	163681	82.41	7.60167e-06
4	163888	82.51	8.39654e-06
4	164074	82.61	8.89801e-06
4	164254	82.71	9.14979e-06
4	164461	82.81	9.19224e-06
4	164659	82.91	9.06218e-06
4	164868	83.01	8.79296e-06
4	165060	83.11	8.41439e-06
4	165246	83.21	7.95291e-06
4	165438	83.31	7.4317e-06
4	165624	83.41	6.87083e-06
4	165828	83.51	6.28748e-06
4	166026	83.61	5.69617e-06
4	166236	83.71	5.10891e-06
4	166431	83.81	4.53553e-06
4	166629	83.91	3.98381e-06
4	166832	84.01	3.45975e-06
4	167021	84.11	2.96779e-06
4	167234	84.21	2.51098e-06
4	167423	84.31	2.09119e-06
4	167603	84.41	1.70932e-06
4	167801	84.51	1.36539e-06
4	167996	84.61	1.05876e-06
4	168176	84.71	7.88229e-07
4	168374	84.81	5.5216e-07
4	168566	84.91	3.48597e-07
4	168772	85.01	1.75353e-07
4	168961	85.11	3.00865e-08
4	169153	85.21	-8.96215e-08
4	169351	85.31	-1.86217e-07
4	169537	85.41	-2.62119e-07
4	169732	85.51	-3.19683e-07
4	169933	85.61	-3.61172e-07
4	170125	85.71	-3.88729e-07
4	170326	85.81	-4.04364e-07
4	170533	85.91	-4.09938e-07
4	170727	86.01	-4.07157e-07
4	170922	86.11	-3.97573e-07
4	171126	86.21	-3.8258e-07
4	171321	86.31	-3.63419e-07
4	171510	86.41	-3.41182e-07
4	171717	86.51	-3.1682e-07
4	171909	86.61	-2.91153e-07
4	172098	86.71	-2.64875e-07
4	172293	86.81	-2.38566e-07
4	172479	86.91	-2.12705e-07
4	172688	87.01	-1.87676e-07
4	172880	87.11	-1.63777e-07
4	173087	87.21	-1.41233e-07
4	173267	87.31	-1.20207e-07
4	173465	87.41	-1.00801e-07
4	173660	87.51	-8.30745e-08
4	173852	87.61	-6.70425e-08
4	174056	87.71	-5.26882e-08
4	174263	87.81	-3.99673e-08
4	174455	87.91	-2.88146e-08
4	174652	88.01	-1.91491e-08
4	174841	88.11	-1.08763e-08
4	175030	88.21	-3.8952e-09
4	175234	88.31	1.90212e-09
4	175432	88.41	6.62368e-09
4	175624	88.51	1.03782e-08
4	175816	88.61	1.32722e-08
4	176008	88.71	1.54081e-08
4	176209	88.81	1.68839e-08
4	176407	88.91	1.7792e-08
4	176598	89.01	1.82176e-08
4	176799	89.11	1.82403e-08
4	177006	89.21	1.79313e-08
4	177207	89.31	1.73564e-08
4	177393	89.41	1.65734e-08
4	177600	89.51	1.56341e-08
4	177795	89.61	1.45832e-08
4	177996	89.71	1.34591e-08
4	178188	89.81	1.22959e-08
4	178374	89.91	1.11207e-08
3	113	1.11	-0.000358191
3	311	1.21	-0.000681704
3	506	1.31	-0.00093487
3	704	1.41	-0.00112579
3	908	1.51	-0.00126221
3	1103	1.61	-0.00135149
3	1310	1.71	-0.00140049
3	1502	1.81	-0.00141557
3	1694	1.91	-0.00140255
3	1909	2.01	-0.00136671
3	2092	2.11	-0.0013128
3	2281	2.21	-0.00124502
3	2488	2.31	-0.0011671
3	2686	2.41	-0.00108223
3	2881	2.51	-0.000993208
3	3070	2.61	-0.000902362
3	3274	2.71	-0.000811651
3	3481	2.81	-0.000722679
3	3664	2.91	-0.000636729
3	3867	3.01	-0.0005548
3	4050	3.11	-0.000477639
3	4239	3.21	-0.000405773
3	4431	3.31	-0.00033954
3	4623	3.41	-0.000279116
3	4812	3.51	-0.000224541
3	5004	3.61	-0.000175743
3	5205	3.71	-0.00013256
3	5397	3.81	-9.47571e-05
3	5595	3.91	-6.2046e-05
3	5798	4.01	-3.40986e-05
3	5990	4.11	-1.05605e-05
3	6182	4.21	8.93844e-06
3	6371	4.31	2.4774e-05
3	6563	4.41	3.73203e-05
3	6764	4.51	4.69433e-05
3	6959	4.61	5.39956e-05
3	7154	4.71	5.88124e-05
3	7364	4.81	6.1709e-05
3	7550	4.91	6.29785e-05
3	7759	5.01	6.28903e-05
3	7960	5.11	6.169e-05
3	8158	5.21	5.95988e-05
3	8356	5.31	5.68144e-05
3	8548	5.41	5.35112e-05
3	8746	5.51	4.98416e-05
3	8947	5.61	4.59373e-05
3	9127	5.71	4.19105e-05
3	9334	5.81	3.78555e-05
3	9529	5.91	3.38499e-05
3	9717	6.01	2.99569e-05
3	9918	6.11	2.62259e-05
3	10119	6.21	2.26948e-05
3	10308	6.31	1.93911e-05
3	10497	6.41	1.6333e-05
3	10686	6.51	1.35314e-05
3	10896	6.61	1.09904e-05
3	11103	6.71	8.70882e-06
3	11295	6.81	6.6809e-06
3	11490	6.91	4.89747e-06
3	11699	7.01	3.3466e-06
3	11882	7.11	2.01432e-06
3	12080	7.21	8.85256e-07
3	12260	7.31	-5.68459e-08
3	12458	7.41	-8.28678e-07
3	12653	7.51	-1.44699e-06
3	12839	7.61	-1.92826e-06
3	13043	7.71	-2.28849e-06
3	13238	7.81	-2.54296e-06
3	13430	7.91	-2.7061e-06
3	13633	8.01	-2.79139e-06
3	13837	8.11	-2.8113e-06
3	14035	8.21	-2.77721e-06
3	14233	8.31	-2.69943e-06
3	14428	8.41	-2.58721e-06
3	14620	8.51	-2.44874e-06
3	14818	8.61	-2.29123e-06
3	15007	8.71	-2.12092e-06
3	15205	8.81	-1.94317e-06
3	15403	8.91	-1.7625e-06
3	15606	9.01	-1.58267e-06
3	15804	9.11	-1.40677e-06
3	15996	9.21	-1.23723e-06
3	16194	9.31	-1.07596e-06
3	16386	9.41	-9.24364e-07
3	16578	9.51	-7.83424e-07
3	16773	9.61	-6.53753e-07
3	16974	9.71	-5.35652e-07
3	17160	9.81	-4.2916e-07
3	17352	9.91	-3.34103e-07
3	17549	10.01	-2.5013e-07
3	17738	10.11	-1.76757e-07
3	17927	10.21	-1.13395e-07
3	18134	10.31	-5.93825e-08
3	18326	10.41	-1.40084e-08
3	18521	10.51	2.34657e-08
3	18713	10.61	5.3787e-08
3	18890	10.71	7.76954e-08
3	19088	10.81	9.59155e-08
3	19283	10.91	1.09142e-07
3	19484	11.01	1.18035e-07
3	20838	11.11	1.23212e-07
3	21024	11.21	1.2525e-07
3	21222	11.31	1.24675e-07
3	21423	11.41	1.21968e-07
3	21624	11.51	1.17559e-07
3	21816	11.61	1.11834e-07
3	21999	11.71	1.05132e-07
3	22185	11.81	9.77476e-08
3	22377	11.91	8.99373e-08
3	22577	12.01	8.19171e-08
3	22772	12.11	7.38677e-08
3	22964	12.21	6.59401e-08
3	23153	12.31	5.82538e-08
3	23348	12.41	5.09036e-08
3	23534	12.51	4.39606e-08
3	23738	12.61	3.74765e-08
3	23933	12.71	3.14852e-08
3	24134	12.81	2.60055e-08
3	24320	12.91	2.10438e-08
3	24523	13.01	1.65958e-08
3	24727	13.11	1.26498e-08
3	24925	13.21	9.18554e-09
3	25114	13.31	6.17888e-09
3	25303	13.41	3.60174e-09
3	25492	13.51	1.42322e-09
3	25687	13.61	-3.90088e-10
3	25888	13.71	-1.8705e-09
3	26086	13.81	-3.05107e-09
3	26278	13.91	-3.96518e-09
3	26481	14.01	-4.64375e-09
3	26676	14.11	-5.11768e-09
3	26877	14.21	-5.41434e-09
3	27084	14.31	-5.56071e-09
3	27288	14.41	-5.58096e-09
3	27486	14.51	-5.49747e-09
3	27678	14.61	-5.33085e-09
3	27870	14.71	-5.09743e-09
3	28062	14.81	-4.81464e-09
3	28254	14.91	-4.49667e-09
3	28457	15.01	-4.15525e-09
3	28664	15.11	-3.80034e-09
3	28856	15.21	-3.44151e-09
3	29060	15.31	-3.08518e-09
3	29261	15.41	-2.73772e-09
3	29456	15.51	-2.40306e-09
3	29639	15.61	-2.08544e-09
3	29843	15.71	-1.78773e-09
3	30044	15.81	-1.51132e-09
3	30242	15.91	-1.25766e-09
3	30451	16.01	-1.02673e-09
3	30643	16.11	-8.18901e-10
3	30841	16.21	-6.33804e-10
3	31030	16.31	-4.70735e-10
3	31228	16.41	-3.28271e-10
3	31420	16.51	-2.05702e-10
3	31621	16.61	-1.00897e-10
3	31816	16.71	-1.35003e-11
3	32011	16.81	5.82645e-11
3	32218	16.91	1.16174e-10
3	32427	17.01	1.61648e-10
3	32628	17.11	1.95755e-10
3	32817	17.21	2.20624e-10
3	33015	17.31	2.36966e-10
3	33225	17.41	2.45848e-10
3	33408	17.51	2.4869e-10
3	33609	17.61	2.46914e-10
3	33810	17.71	2.40874e-10
3	34002	17.81	2.31282e-10
3	34191	17.91	2.19913e-10
3	34385	18.01	2.05702e-10
3	34580	18.11	1.91491e-10
3	34781	18.21	1.7657e-10
3	34964	18.31	1.59872e-10
3	35165	18.41	1.44595e-10
3	35354	18.51	1.30385e-10
3	35543	18.61	1.16174e-10
3	35741	18.71	1.01963e-10
3	35936	18.81	8.7752e-11
3	36143	18.91	7.35412e-11
3	36346	19.01	6.21725e-11
3	36535	19.11	5.15143e-11
3	36730	19.21	4.08562e-11
3	36922	19.31	3.16192e-11
3	37123	19.41	2.45137e-11
3	37312	19.51	1.74083e-11
3	37507	19.61	1.03029e-11
3	37699	19.71	6.03961e-12
3	37903	19.81	2.4869e-12
3	38095	19.91	-1.06581e-12
3	38295	20.01	-4.61853e-12
3	38496	20.11	-8.17124e-12
3	38697	20.21	-8.88178e-12
3	38889	20.31	-8.88178e-12
3	39081	20.41	-8.88178e-12
3	39282	20.51	-8.88178e-12
3	39477	20.61	-8.88178e-12
3	39666	20.71	-8.88178e-12
3	39852	20.81	-8.88178e-12
3	40044	20.91	-8.88178e-12
3	40244	21.01	-8.88178e-12
3	40436	21.11	-8.88178e-12
3	40634	21.21	-8.88178e-12
3	40832	21.31	-8.88178e-12
3	41033	21.41	-8.88178e-12
3	41231	21.51	-8.88178e-12
3	41432	21.61	-8.88178e-12
3	41627	21.71	-8.88178e-12
3	41822	21.81	-8.88178e-12
3	42023	21.91	-8.88178e-12
3	42220	22.01	-8.88178e-12
3	42406	22.11	-8.88178e-12
3	42586	22.21	-8.17124e-12
3	42775	22.31	-7.4607e-12
3	42964	22.41	-6.75016e-12
3	43171	22.51	-6.03961e-12
3	43363	22.61	-5.68434e-12
3	43561	22.71	-4.9738e-12
3	43756	22.81	-4.61853e-12
3	43954	22.91	-4.26326e-12
3	44148	23.01	-3.55271e-12
3	44340	23.11	-3.19744e-12
3	44535	23.21	-3.19744e-12
3	44733	23.31	-2.84217e-12
3	44925	23.41	-2.4869e-12
3	45422	23.51	-2.13163e-12
3	45620	23.61	-2.13163e-12
3	45815	23.71	-1.77636e-12
3	46010	23.81	-1.77636e-12
3	46190	23.91	-1.42109e-12
3	46396	24.01	-1.42109e-12
3	46597	24.11	-1.06581e-12
3	46801	24.21	-1.06581e-12
3	46987	24.31	-1.06581e-12
3	47185	24.41	-1.06581e-12
3	47383	24.51	-7.10543e-13
3	47575	24.61	-7.10543e-13
3	47770	24.71	-7.10543e-13
3	47962	24.81	-7.10543e-13
3	48157	24.91	-7.10543e-13
3	48354	25.01	-3.55271e-13
3	48555	25.11	-3.55271e-13
3	48750	25.21	-3.55271e-13
3	48936	25.31	-3.55271e-13
3	49140	25.41	-3.55271e-13
3	49326	25.51	-3.55271e-13
3	49512	25.61	-3.55271e-13
3	49701	25.71	-3.55271e-13
3	49893	25.81	-3.55271e-13
3	50100	25.91	-3.55271e-13
3	50303	26.01	0
3	50492	26.11	0
3	50687	26.21	0
3	50873	26.31	0
3	51068	26.41	0
3	51254	26.51	0
3	51452	26.61	0
3	51647	26.71	0
3	51854	26.81	0
3	52043	26.91	0
3	52243	27.01	0
3	52438	27.11	0
3	52633	27.21	0
3	52816	27.31	0
3	53020	27.41	0
3	53218	27.51	0
3	53413	27.61	0
3	53599	27.71	0
3	53797	27.81	0
3	53995	27.91	0
3	54204	28.01	0
3	54402	28.11	0
3	54582	28.21	0
3	54771	28.31	0
3	54969	28.41	0
3	55176	28.51	0
3	55359	28.61	0
3	55563	28.71	0
3	55758	28.81	0
3	55950	28.91	0
3	56147	29.01	0
3	56330	29.11	0
3	56531	29.21	0
3	56723	29.31	0
3	56912	29.41	0
3	57113	29.51	0
3	57305	29.61	0
3	57488	29.71	0
3	57680	29.81	0
3	57872	29.91	0
3	58078	30.01	0
3	58282	30.11	0
3	58486	30.21	0
3	58675	30.31	0
3	58882	30.41	0
3	59077	30.51	0
3	59269	30.61	0
3	59470	30.71	0
3	59650	30.81	0
3	60374	30.91	0
3	60571	31.01	0
3	60763	31.11	0
3	60952	31.21	0
3	61150	31.31	0
3	61333	31.41	0
3	61528	31.51	0
3	61729	31.61	0
3	61924	31.71	0
3	62125	31.81	0
3	62332	31.91	0
3	62526	32.01	0
3	62724	32.11	0
3	62913	32.21	0
3	63111	32.31	0
3	63306	32.41	0
3	63513	32.51	0
3	63696	32.61	0
3	63891	32.71	0
3	64080	32.81	0
3	64272	32.91	0
3	64487	33.01	0
3	64676	33.11	0
3	64871	33.21	0
3	65060	33.31	0
3	65249	33.41	0
3	65444	33.51	0
3	65639	33.61	0
3	65837	33.71	0
3	66023	33.81	0
3	66215	33.91	0
3	66400	34.01	0
3	66595	34.11	0
3	66790	34.21	0
3	66988	34.31	0
3	67183	34.41	0
3	67390	34.51	0
3	67585	34.61	0
3	67768	34.71	0
3	67960	34.81	0
3	68161	34.91	0
3	68358	35.01	0
3	68550	35.11	0
3	68748	35.21	0
3	68943	35.31	0
3	69144	35.41	0
3	69339	35.51	0
3	69531	35.61	0
3	69720	35.71	0
3	69921	35.81	0
3	70104	35.91	0
3	70304	36.01	0
3	70499	36.11	0
3	70703	36.21	0
3	70904	36.31	0
3	71096	36.41	0
3	71291	36.51	0
3	71489	36.61	0
3	71684	36.71	0
3	71882	36.81	0
3	72074	36.91	0
3	72274	37.01	0
3	72469	37.11	0
3	72667	37.21	0
3	72859	37.31	0
3	73045	37.41	0
3	73246	37.51	0
3	73459	37.61	0
3	73639	37.71	0
3	73834	37.81	0
3	74014	37.91	0
3	74214	38.01	0
3	74400	38.11	0
3	74592	38.21	0
3	74796	38.31	0
3	74988	38.41	0
3	75189	38.51	0
3	75375	38.61	0
3	75570	38.71	0
3	75759	38.81	0
3	75963	38.91	0
3	76151	39.01	0
3	76346	39.11	0
3	76541	39.21	0
3	76727	39.31	0
3	76928	39.41	0
3	77126	39.51	0
3	77324	39.61	0
3	77513	39.71	0
3	77702	39.81	0
3	77891	39.91	0
3	78097	40.01	0
3	78289	40.11	0
3	78484	40.21	0
3	78679	40.31	0
3	78877	40.41	0
3	79063	40.51	0
3	79270	40.61	0
3	79462	40.71	0
3	79666	40.81	0
3	79861	40.91	0
3	80055	41.01	0
3	80259	41.11	0
3	80451	41.21	0
3	80643	41.31	0
3	80844	41.41	0
3	81033	41.51	0
3	81228	41.61	0
3	81432	41.71	0
3	81633	41.81	0
3	81834	41.91	0
3	82022	42.01	0
3	82217	42.11	0
3	82412	42.21	0
3	82613	42.31	0
3	82823	42.41	0
3	83012	42.51	0
3	83207	42.61	0
3	83411	42.71	0
3	83606	42.81	0
3	83792	42.91	0
3	83989	43.01	0
3	84184	43.11	0
3	84385	43.21	0
3	84580	43.31	0
3	84781	43.41	0
3	84985	43.51	0
3	85168	43.61	0
3	85360	43.71	0
3	85552	43.81	0
3	85732	43.91	0
3	85944	44.01	0
3	86148	44.11	0
3	86337	44.21	0
3	86529	44.31	0
3	86706	44.41	0
3	86892	44.51	0
3	87087	44.61	0
3	87285	44.71	0
3	87477	44.81	0
3	87666	44.91	0
3	87872	45.01	0
3	88067	45.11	0
3	88271	45.21	0
3	88469	45.31	0
3	88658	45.41	0
3	88847	45.51	0
3	89412	45.61	0
3	89598	45.71	0
3	89778	45.81	0
3	89970	45.91	0
3	90167	46.01	0
3	90365	46.11	0
3	90566	46.21	0
3	90779	46.31	0
3	90977	46.41	0
3	91175	46.51	0
3	91367	46.61	0
3	91568	46.71	0
3	91760	46.81	0
3	91958	46.91	0
3	92155	47.01	0
3	92356	47.11	0
3	92551	47.21	0
3	92752	47.31	0
3	92944	47.41	0
3	93142	47.51	0
3	93319	47.61	0
3	93505	47.71	0
3	93697	47.81	0
3	93895	47.91	0
3	94089	48.01	0
3	94284	48.11	0
3	94470	48.21	0
3	94662	48.31	0
3	94854	48.41	0
3	95046	48.51	0
3	95241	48.61	0
3	95427	48.71	0
3	95622	48.81	0
3	95817	48.91	0
3	96026	49.01	0
3	96221	49.11	0
3	96416	49.21	0
3	96611	49.31	0
3	96803	49.41	0
3	97001	49.51	0
3	97196	49.61	0
3	97397	49.71	0
3	97586	49.81	0
3	97775	49.91	0
3	97978	50.01	0
3	98170	50.11	0
3	98368	50.21	0
3	98569	50.31	0
3	98773	50.41	0
3	98977	50.51	0
3	99172	50.61	0
3	99361	50.71	0
3	99556	50.81	0
3	99748	50.91	0
3	99945	51.01	0
3	100137	51.11	0
3	100323	51.21	0
3	100524	51.31	0
3	100716	51.41	0
3	100917	51.51	0
3	101109	51.61	0
3	101304	51.71	0
3	101508	51.81	0
3	101700	51.91	0
3	101900	52.01	0
3	102089	52.11	0
3	102299	52.21	0
3	102497	52.31	0
3	102689	52.41	0
3	102896	52.51	0
3	103091	52.61	0
3	103283	52.71	0
3	103481	52.81	0
3	103673	52.91	0
3	103876	53.01	0
3	104071	53.11	0
3	104260	53.21	0
3	104458	53.31	0
3	104662	53.41	0
3	104842	53.51	0
3	105037	53.61	0
3	105229	53.71	0
3	105415	53.81	0
3	105622	53.91	0
3	105822	54.01	0
3	106020	54.11	0
3	106221	54.21	0
3	106419	54.31	0
3	106611	54.41	0
3	106800	54.51	0
3	106980	54.61	0
3	107166	54.71	0
3	107361	54.81	0
3	107562	54.91	0
3	107762	55.01	0
3	107960	55.11	0
3	108152	55.21	0
3	108347	55.31	0
3	108539	55.41	0
3	108746	55.51	0
3	108950	55.61	0
3	109151	55.71	0
3	109346	55.81	0
3	109538	55.91	0
3	109747	56.01	0
3	109942	56.11	0
3	110140	56.21	0
3	110329	56.31	0
3	110521	56.41	0
3	110713	56.51	0
3	110896	56.61	0
3	111094	56.71	0
3	111289	56.81	0
3	111478	56.91	0
3	111669	57.01	0
3	111870	57.11	0
3	112056	57.21	0
3	112254	57.31	0
3	112443	57.41	0
3	112629	57.51	0
3	112818	57.61	0
3	113013	57.71	0
3	113205	57.81	0
3	113403	57.91	0
3	113600	58.01	0
3	114077	58.11	0
3	114275	58.21	0
3	114479	58.31	0
3	114680	58.41	0
3	114878	58.51	0
3	115070	58.61	0
3	115265	58.71	0
3	115457	58.81	0
3	115643	58.91	0
3	115849	59.01	0
3	116047	59.11	0
3	116245	59.21	0
3	116440	59.31	0
3	116629	59.41	0
3	116827	59.51	0
3	117016	59.61	0
3	117223	59.71	0
3	117412	59.81	0
3	117610	59.91	0
3	117825	60.01	0
3	118029	60.11	0
3	118227	60.21	0
3	118422	60.31	0
3	118626	60.41	0
3	118833	60.51	0
3	119031	60.61	0
3	119232	60.71	0
3	119406	60.81	0
3	119607	60.91	0
3	119801	61.01	0
3	119987	61.11	0
3	120173	61.21	0
3	120377	61.31	0
3	120578	61.41	0
3	120764	61.51	0
3	120962	61.61	0
3	121163	61.71	0
3	121367	61.81	0
3	121562	61.91	0
3	121756	62.01	0
3	121951	62.11	0
3	122143	62.21	0
3	122332	62.31	0
3	122527	62.41	0
3	122734	62.51	0
3	122938	62.61	0
3	123124	62.71	0
3	123319	62.81	0
3	123520	62.91	0
3	123717	63.01	0
3	123900	63.11	0
3	124104	63.21	0
3	124302	63.31	0
3	124488	63.41	0
3	124686	63.51	0
3	124866	63.61	0
3	125067	63.71	0
3	125259	63.81	0
3	125466	63.91	0
3	125678	64.01	0
3	125867	64.11	0
3	126074	64.21	0
3	126269	64.31	0
3	126467	64.41	0
3	126665	64.51	0
3	126851	64.61	0
3	127037	64.71	0
3	127238	64.81	0
3	127439	64.91	0
3	127651	65.01	0
3	127837	65.11	0
3	128032	65.21	0
3	128230	65.31	0
3	128425	65.41	0
3	128614	65.51	0
3	128809	65.61	0
3	129010	65.71	0
3	129202	65.81	0
3	129400	65.91	0
3	131543	66.01	0.19416
3	131735	66.11	0.428756
3	131930	66.21	0.621207
3	132125	66.31	0.779084
3	132326	66.41	0.908597
3	132521	66.51	1.01484
3	132716	66.61	1.102
3	132905	66.71	1.1735
3	133103	66.81	1.23216
3	133289	66.91	1.28028
3	133495	67.01	1.31975
3	133705	67.11	1.35213
3	133906	67.21	1.3787
3	134113	67.31	1.40049
3	134305	67.41	1.41837
3	134497	67.51	1.43303
3	134695	67.61	1.44506
3	134890	67.71	1.45493
3	135094	67.81	1.46303
3	135289	67.91	1.46967
3	135495	68.01	1.47512
3	135696	68.11	1.47959
3	135879	68.21	1.48326
3	136077	68.31	1.48626
3	136284	68.41	1.48873
3	136473	68.51	1.49076
3	136668	68.61	1.49242
3	136866	68.71	1.49378
3	137061	68.81	1.4949
3	137253	68.91	1.49581
3	137456	69.01	1.49657
3	137648	69.11	1.49718
3	137840	69.21	1.49769
3	138041	69.31	1.4981
3	138227	69.41	1.49844
3	138413	69.51	1.49872
3	138605	69.61	1.49895
3	138791	69.71	1.49914
3	138992	69.81	1.4993
3	139184	69.91	1.49942
3	139384	70.01	1.49953
3	139579	70.11	1.49961
3	139768	70.21	1.49968
3	139957	70.31	1.49974
3	140155	70.41	1.49979
3	140368	70.51	1.49982
3	140557	70.61	1.49986
3	140752	70.71	1.49988
3	140956	70.81	1.4999
3	141139	70.91	1.49992
3	141330	71.01	1.4998
3	141525	71.11	1.4834
3	141738	71.21	1.44334
3	141921	71.31	1.38459
3	142110	71.41	1.31155
3	142317	71.51	1.22812
3	142509	71.61	1.13765
3	142710	71.71	1.04302
3	142896	71.81	0.94669
3	143091	71.91	0.850685
3	143291	72.01	0.756669
3	143495	72.11	0.665972
3	143690	72.21	0.579624
3	143894	72.31	0.498392
3	144095	72.41	0.422815
3	144290	72.51	0.353232
3	144491	72.61	0.289814
3	144686	72.71	0.232591
3	144881	72.81	0.181476
3	145079	72.91	0.13629
3	145291	73.01	0.0967766
3	145492	73.11	0.0626262
3	145693	73.21	0.0334878
3	145882	73.31	0.0089835
3	146074	73.41	-0.0112797
3	146275	73.51	-0.0277002
3	146476	73.61	-0.040674
3	146671	73.71	-0.0505875
3	146869	73.81	-0.0578126
3	147073	73.91	-0.0627029
3	147273	74.01	-0.0655899
3	147465	74.11	-0.0667819
3	147654	74.21	-0.066562
3	147843	74.31	-0.0651877
3	148038	74.41	-0.0628911
3	148236	74.51	-0.0598791
3	148431	74.61	-0.0563342
3	148638	74.71	-0.0524158
3	148845	74.81	-0.0482612
3	149037	74.91	-0.0439874
3	149237	75.01	-0.0396924
3	149432	75.11	-0.0354571
3	149627	75.21	-0.0313467
3	149816	75.31	-0.0274126
3	150005	75.41	-0.0236935
3	150194	75.51	-0.0202176
3	150398	75.61	-0.0170036
3	150587	75.71	-0.0140619
3	150788	75.81	-0.0113966
3	150986	75.91	-0.00900565
3	151180	76.01	-0.00688272
3	151378	76.11	-0.00501774
3	151573	76.21	-0.0033978
3	151759	76.31	-0.00200795
3	151954	76.41	-0.000831773
3	152158	76.51	0.000148021
3	152347	76.61	0.000949138
3	152542	76.71	0.00158931
3	152731	76.81	0.00208597
3	152926	76.91	0.00245599
3	153129	77.01	0.00271548
3	153321	77.11	0.00287965
3	153510	77.21	0.00296268
3	153708	77.31	0.00297765
3	153897	77.41	0.00293653
3	154086	77.51	0.00285013
3	154272	77.61	0.00272813
3	154464	77.71	0.00257911
3	154650	77.81	0.00241061
3	154854	77.91	0.00222914
3	155057	78.01	0.00204029
3	155252	78.11	0.00184878
3	155450	78.21	0.00165851
3	155654	78.31	0.00147268
3	155846	78.41	0.00129381
3	156020	78.51	0.00112388
3	156203	78.61	0.000964317
3	156398	78.71	0.000816123
3	156608	78.81	0.000679915
3	156815	78.91	0.000555982
3	157006	79.01	0.000444342
3	157207	79.11	0.000344789
3	157408	79.21	0.000256936
3	157612	79.31	0.000180258
3	157807	79.41	0.000114122
3	158008	79.51	5.78207e-05
3	158203	79.61	1.05969e-05
3	158407	79.71	-2.8333e-05
3	158599	79.81	-5.9761e-05
3	158785	79.91	-8.4471e-05
3	158982	80.01	-0.000103227
3	159180	80.11	-0.000116762
3	159384	80.21	-0.000125771
3	159576	80.31	-0.000130905
3	159762	80.41	-0.00013277
3	159969	80.51	-0.000131918
3	160170	80.61	-0.000128853
3	160371	80.71	-0.000124027
3	160569	80.81	-0.000117844
3	160770	80.91	-0.000110659
3	160955	81.01	-0.000102779
3	161144	81.11	-9.44714e-05
3	161336	81.21	-8.59619e-05
3	161522	81.31	-7.74394e-05
3	161711	81.41	-6.9059e-05
3	161900	81.51	-6.09455e-05
3	162095	81.61	-5.31965e-05
3	162296	81.71	-4.58855e-05
3	162479	81.81	-3.9065e-05
3	162677	81.91	-3.27691e-05
3	162877	82.01	-2.70165e-05
3	163066	82.11	-2.18128e-05
3	163264	82.21	-1.71528e-05
3	163468	82.31	-1.30223e-05
3	163681	82.41	-9.40023e-06
3	163888	82.51	-6.2603e-06
3	164074	82.61	-3.57219e-06
3	164254	82.71	-1.30292e-06
3	164461	82.81	5.82033e-07
3	164659	82.91	2.11791e-06
3	164868	83.01	3.33988e-06
3	165060	83.11	4.28242e-06
3	165246	83.21	4.97882e-06
3	165438	83.31	5.46081e-06
3	165624	83.41	5.75827e-06
3	165828	83.51	5.89901e-06
3	166026	83.61	5.90866e-06
3	166236	83.71	5.8106e-06
3	166431	83.81	5.62594e-06
3	166629	83.91	5.37354e-06
3	166832	84.01	5.07011e-06
3	167021	84.11	4.73026e-06
3	167234	84.21	4.36662e-06
3	167423	84.31	3.98999e-06
3	167603	84.41	3.60946e-06
3	167801	84.51	3.23255e-06
3	167996	84.61	2.86538e-06
3	168176	84.71	2.51277e-06
3	168374	84.81	2.17845e-06
3	168566	84.91	1.86511e-06
3	168772	85.01	1.57461e-06
3	168961	85.11	1.30806e-06
3	169153	85.21	1.06593e-06
3	169351	85.31	8.48188e-07
3	169537	85.41	6.54347e-07
3	169732	85.51	4.83594e-07
3	169933	85.61	3.34843e-07
3	170125	85.71	2.0681e-07
3	170326	85.81	9.80691e-08
3	170533	85.91	7.10401e-09
3	170727	86.01	-6.76458e-08
3	170922	86.11	-1.27753e-07
3	171126	86.21	-1.74771e-07
3	171321	86.31	-2.10208e-07
3	171510	86.41	-2.35509e-07
3	171717	86.51	-2.52038e-07
3	171909	86.61	-2.61079e-07
3	172098	86.71	-2.63812e-07
3	172293	86.81	-2.61323e-07
3	172479	86.91	-2.54595e-07
3	172688	87.01	-2.44508e-07
3	172880	87.11	-2.31848e-07
3	173087	87.21	-2.17305e-07
3	173267	87.31	-2.01476e-07
3	173465	87.41	-1.84877e-07
3	173660	87.51	-1.67944e-07
3	173852	87.61	-1.51041e-07
3	174056	87.71	-1.34466e-07
3	174263	87.81	-1.18457e-07
3	174455	87.91	-1.03199e-07
3	174652	88.01	-8.88321e-08
3	174841	88.11	-7.54525e-08
3	175030	88.21	-6.31225e-08
3	175234	88.31	-5.18753e-08
3	175432	88.41	-4.17188e-08
3	175624	88.51	-3.26395e-08
3	175816	88.61	-2.46054e-08
3	176008	88.71	-1.75731e-08
3	176209	88.81	-1.14888e-08
3	176407	88.91	-6.29186e-09
3	176598	89.01	-1.91562e-09
3	176799	89.11	1.70957e-09
3	177006	89.21	4.65192e-09
3	177207	89.31	6.98392e-09
3	177393	89.41	8.76952e-09
3	177600	89.51	1.00769e-08
3	177795	89.61	1.09708e-08
3	177996	89.71	1.15065e-08
3	178188	89.81	1.17396e-08
3	178374	89.91	1.17197e-08
7	113	1.11	242.45
7	311	1.21	242.45
7	506	1.31	242.45
7	704	1.41	242.45
7	908	1.51	242.45
7	1103	1.61	242.45
7	1310	1.71	242.45
7	1502	1.81	242.45
7	1694	1.91	242.45
7	1909	2.01	242.45
7	2092	2.11	242.45
7	2281	2.21	242.45
7	2488	2.31	242.45
7	2686	2.41	242.45
7	2881	2.51	242.45
7	3070	2.61	242.45
7	3274	2.71	242.45
7	3481	2.81	242.45
7	3664	2.91	242.45
7	3867	3.01	242.45
7	4050	3.11	242.45
7	4239	3.21	242.45
7	4431	3.31	242.45
7	4623	3.41	242.45
7	4812	3.51	242.45
7	5004	3.61	242.45
7	5205	3.71	242.45
7	5397	3.81	242.45
7	5595	3.91	242.45
7	5798	4.01	242.45
7	5990	4.11	242.45
7	6182	4.21	242.45
7	6371	4.31	242.45
7	6563	4.41	242.45
7	6764	4.51	242.45
7	6959	4.61	242.45
7	7154	4.71	242.45
7	7364	4.81	242.45
7	7550	4.91	242.45
7	7759	5.01	242.45
7	7960	5.11	242.45
7	8158	5.21	242.45
7	8356	5.31	242.45
7	8548	5.41	242.45
7	8746	5.51	242.45
7	8947	5.61	242.45
7	9127	5.71	242.45
7	9334	5.81	242.45
7	9529	5.91	242.45
7	9717	6.01	242.45
7	9918	6.11	242.45
7	10119	6.21	242.45
7	10308	6.31	242.45
7	10497	6.41	242.45
7	10686	6.51	242.45
7	10896	6.61	242.45
7	11103	6.71	242.45
7	11295	6.81	242.45
7	11490	6.91	242.45
7	11699	7.01	242.45
7	11882	7.11	242.45
7	12080	7.21	242.45
7	12260	7.31	242.45
7	12458	7.41	242.45
7	12653	7.51	242.45
7	12839	7.61	242.45
7	13043	7.71	242.45
7	13238	7.81	242.45
7	13430	7.91	242.45
7	13633	8.01	242.45
7	13837	8.11	242.45
7	14035	8.21	242.45
7	14233	8.31	242.45
7	14428	8.41	242.45
7	14620	8.51	242.45
7	14818	8.61	242.45
7	15007	8.71	242.45
7	15205	8.81	242.45
7	15403	8.91	242.45
7	15606	9.01	242.45
7	15804	9.11	242.45
7	15996	9.21	242.45
7	16194	9.31	242.45
7	16386	9.41	242.45
7	16578	9.51	242.45
7	16773	9.61	242.45
7	16974	9.71	242.45
7	17160	9.81	242.45
7	17352	9.91	242.45
7	17549	10.01	242.45
7	17738	10.11	242.45
7	17927	10.21	242.45
7	18134	10.31	242.45
7	18326	10.41	242.45
7	18521	10.51	242.45
7	18713	10.61	242.45
7	18890	10.71	242.45
7	19088	10.81	242.45
7	19283	10.91	242.45
7	19484	11.01	242.45
7	20838	11.11	242.45
7	21024	11.21	242.45
7	21222	11.31	242.45
7	21423	11.41	242.45
7	21624	11.51	242.45
7	21816	11.61	242.45
7	21999	11.71	242.45
7	22185	11.81	242.45
7	22377	11.91	242.45
7	22577	12.01	242.45
7	22772	12.11	242.45
7	22964	12.21	242.45
7	23153	12.31	242.45
7	23348	12.41	242.45
7	23534	12.51	242.45
7	23738	12.61	242.45
7	23933	12.71	242.45
7	24134	12.81	242.45
7	24320	12.91	242.45
7	24523	13.01	242.45
7	24727	13.11	242.45
7	24925	13.21	242.45
7	25114	13.31	242.45
7	25303	13.41	242.45
7	25492	13.51	242.45
7	25687	13.61	242.45
7	25888	13.71	242.45
7	26086	13.81	242.45
7	26278	13.91	242.45
7	26481	14.01	242.45
7	26676	14.11	242.45
7	26877	14.21	242.45
7	27084	14.31	242.45
7	27288	14.41	242.45
7	27486	14.51	242.45
7	27678	14.61	242.45
7	27870	14.71	242.45
7	28062	14.81	242.45
7	28254	14.91	242.45
7	28457	15.01	242.45
7	28664	15.11	242.45
7	28856	15.21	242.45
7	29060	15.31	242.45
7	29261	15.41	242.45
7	29456	15.51	242.45
7	29639	15.61	242.45
7	29843	15.71	242.45
7	30044	15.81	242.45
7	30242	15.91	242.45
7	30451	16.01	242.45
7	30643	16.11	242.45
7	30841	16.21	242.45
7	31030	16.31	242.45
7	31228	16.41	242.45
7	31420	16.51	242.45
7	31621	16.61	242.45
7	31816	16.71	242.45
7	32011	16.81	242.45
7	32218	16.91	242.45
7	32427	17.01	242.45
7	32628	17.11	242.45
7	32817	17.21	242.45
7	33015	17.31	242.45
7	33225	17.41	242.45
7	33408	17.51	242.45
7	33609	17.61	242.45
7	33810	17.71	242.45
7	34002	17.81	242.45
7	34191	17.91	242.45
7	34385	18.01	242.45
7	34580	18.11	242.45
7	34781	18.21	242.45
7	34964	18.31	242.45
7	35165	18.41	242.45
7	35354	18.51	242.45
7	35543	18.61	242.45
7	35741	18.71	242.45
7	35936	18.81	242.45
7	36143	18.91	242.45
7	36346	19.01	242.45
7	36535	19.11	242.45
7	36730	19.21	242.45
7	36922	19.31	242.45
7	37123	19.41	242.45
7	37312	19.51	242.45
7	37507	19.61	242.45
7	37699	19.71	242.45
7	37903	19.81	242.45
7	38095	19.91	242.45
7	38295	20.01	242.45
7	38496	20.11	242.45
7	38697	20.21	242.45
7	38889	20.31	242.45
7	39081	20.41	242.45
7	39282	20.51	242.45
7	39477	20.61	242.45
7	39666	20.71	242.45
7	39852	20.81	242.45
7	40044	20.91	242.45
7	40244	21.01	242.45
7	40436	21.11	242.45
7	40634	21.21	242.45
7	40832	21.31	242.45
7	41033	21.41	242.45
7	41231	21.51	242.45
7	41432	21.61	242.45
7	41627	21.71	242.45
7	41822	21.81	242.45
7	42023	21.91	242.45
7	42220	22.01	242.45
7	42406	22.11	242.45
7	42586	22.21	242.45
7	42775	22.31	242.45
7	42964	22.41	242.45
7	43171	22.51	242.45
7	43363	22.61	242.45
7	43561	22.71	242.45
7	43756	22.81	242.45
7	43954	22.91	242.45
7	44148	23.01	242.45
7	44340	23.11	242.45
7	44535	23.21	242.45
7	44733	23.31	242.45
7	44925	23.41	242.45
7	45422	23.51	242.45
7	45620	23.61	242.45
7	45815	23.71	242.45
7	46010	23.81	242.45
7	46190	23.91	242.45
7	46396	24.01	242.45
7	46597	24.11	242.45
7	46801	24.21	242.45
7	46987	24.31	242.45
7	47185	24.41	242.45
7	47383	24.51	242.45
7	47575	24.61	242.45
7	47770	24.71	242.45
7	47962	24.81	242.45
7	48157	24.91	242.45
7	48354	25.01	242.45
7	48555	25.11	242.45
7	48750	25.21	242.45
7	48936	25.31	242.45
7	49140	25.41	242.45
7	49326	25.51	242.45
7	49512	25.61	242.45
7	49701	25.71	242.45
7	49893	25.81	242.45
7	50100	25.91	242.45
7	50303	26.01	242.45
7	50492	26.11	242.45
7	50687	26.21	242.45
7	50873	26.31	242.45
7	51068	26.41	242.45
7	51254	26.51	242.45
7	51452	26.61	242.45
7	51647	26.71	242.45
7	51854	26.81	242.45
7	52043	26.91	242.45
7	52243	27.01	242.45
7	52438	27.11	242.45
7	52633	27.21	242.45
7	52816	27.31	242.45
7	53020	27.41	242.45
7	53218	27.51	242.45
7	53413	27.61	242.45
7	53599	27.71	242.45
7	53797	27.81	242.45
7	53995	27.91	242.45
7	54204	28.01	242.45
7	54402	28.11	242.45
7	54582	28.21	242.45
7	54771	28.31	242.45
7	54969	28.41	242.45
7	55176	28.51	242.45
7	55359	28.61	242.45
7	55563	28.71	242.45
7	55758	28.81	242.45
7	55950	28.91	242.45
7	56147	29.01	242.45
7	56330	29.11	242.45
7	56531	29.21	242.45
7	56723	29.31	242.45
7	56912	29.41	242.45
7	57113	29.51	242.45
7	57305	29.61	242.45
7	57488	29.71	242.45
7	57680	29.81	242.45
7	57872	29.91	242.45
7	58078	30.01	242.45
7	58282	30.11	242.45
7	58486	30.21	242.45
7	58675	30.31	242.45
7	58882	30.41	242.45
7	59077	30.51	242.45
7	59269	30.61	242.45
7	59470	30.71	242.45
7	59650	30.81	242.45
7	60374	30.91	242.45
7	60571	31.01	242.45
7	60763	31.11	242.45
7	60952	31.21	242.45
7	61150	31.31	242.45
7	61333	31.41	242.45
7	61528	31.51	242.45
7	61729	31.61	242.45
7	61924	31.71	242.45
7	62125	31.81	242.45
7	62332	31.91	242.45
7	62526	32.01	242.45
7	62724	32.11	242.45
7	62913	32.21	242.45
7	63111	32.31	242.45
7	63306	32.41	242.45
7	63513	32.51	242.45
7	63696	32.61	242.45
7	63891	32.71	242.45
7	64080	32.81	242.45
7	64272	32.91	242.45
7	64487	33.01	242.45
7	64676	33.11	242.45
7	64871	33.21	242.45
7	65060	33.31	242.45
7	65249	33.41	242.45
7	65444	33.51	242.45
7	65639	33.61	242.45
7	65837	33.71	242.45
7	66023	33.81	242.45
7	66215	33.91	242.45
7	66400	34.01	242.45
7	66595	34.11	242.45
7	66790	34.21	242.45
7	66988	34.31	242.45
7	67183	34.41	242.45
7	67390	34.51	242.45
7	67585	34.61	242.45
7	67768	34.71	242.45
7	67960	34.81	242.45
7	68161	34.91	242.45
7	68358	35.01	242.45
7	68550	35.11	242.45
7	68748	35.21	242.45
7	68943	35.31	242.45
7	69144	35.41	242.45
7	69339	35.51	242.45
7	69531	35.61	242.45
7	69720	35.71	242.45
7	69921	35.81	242.45
7	70104	35.91	242.45
7	70304	36.01	242.45
7	70499	36.11	242.45
7	70703	36.21	242.45
7	70904	36.31	242.45
7	71096	36.41	242.45
7	71291	36.51	242.45
7	71489	36.61	242.45
7	71684	36.71	242.45
7	71882	36.81	242.45
7	72074	36.91	242.45
7	72274	37.01	242.45
7	72469	37.11	242.45
7	72667	37.21	242.45
7	72859	37.31	242.45
7	73045	37.41	242.45
7	73246	37.51	242.45
7	73459	37.61	242.45
7	73639	37.71	242.45
7	73834	37.81	242.45
7	74014	37.91	242.45
7	74214	38.01	242.45
7	74400	38.11	242.45
7	74592	38.21	242.45
7	74796	38.31	242.45
7	74988	38.41	242.45
7	75189	38.51	242.45
7	75375	38.61	242.45
7	75570	38.71	242.45
7	75759	38.81	242.45
7	75963	38.91	242.45
7	76151	39.01	242.45
7	76346	39.11	242.45
7	76541	39.21	242.45
7	76727	39.31	242.45
7	76928	39.41	242.45
7	77126	39.51	242.45
7	77324	39.61	242.45
7	77513	39.71	242.45
7	77702	39.81	242.45
7	77891	39.91	242.45
7	78097	40.01	242.45
7	78289	40.11	242.45
7	78484	40.21	242.45
7	78679	40.31	242.45
7	78877	40.41	242.45
7	79063	40.51	242.45
7	79270	40.61	242.45
7	79462	40.71	242.45
7	79666	40.81	242.45
7	79861	40.91	242.45
7	80055	41.01	242.45
7	80259	41.11	242.45
7	80451	41.21	242.45
7	80643	41.31	242.45
7	80844	41.41	242.45
7	81033	41.51	242.45
7	81228	41.61	242.45
7	81432	41.71	242.45
7	81633	41.81	242.45
7	81834	41.91	242.45
7	82022	42.01	242.45
7	82217	42.11	242.45
7	82412	42.21	242.45
7	82613	42.31	242.45
7	82823	42.41	242.45
7	83012	42.51	242.45
7	83207	42.61	242.45
7	83411	42.71	242.45
7	83606	42.81	242.45
7	83792	42.91	242.45
7	83989	43.01	242.45
7	84184	43.11	242.45
7	84385	43.21	242.45
7	84580	43.31	242.45
7	84781	43.41	242.45
7	84985	43.51	242.45
7	85168	43.61	242.45
7	85360	43.71	242.45
7	85552	43.81	242.45
7	85732	43.91	242.45
7	85944	44.01	242.45
7	86148	44.11	242.45
7	86337	44.21	242.45
7	86529	44.31	242.45
7	86706	44.41	242.45
7	86892	44.51	242.45
7	87087	44.61	242.45
7	87285	44.71	242.45
7	87477	44.81	242.45
7	87666	44.91	242.45
7	87872	45.01	242.45
7	88067	45.11	242.45
7	88271	45.21	242.45
7	88469	45.31	242.45
7	88658	45.41	242.45
7	88847	45.51	242.45
7	89412	45.61	242.45
7	89598	45.71	242.45
7	89778	45.81	242.45
7	89970	45.91	242.45
7	90167	46.01	242.45
7	90365	46.11	242.45
7	90566	46.21	242.45
7	90779	46.31	242.45
7	90977	46.41	242.45
7	91175	46.51	242.45
7	91367	46.61	242.45
7	91568	46.71	242.45
7	91760	46.81	242.45
7	91958	46.91	242.45
7	92155	47.01	242.45
7	92356	47.11	242.45
7	92551	47.21	242.45
7	92752	47.31	242.45
7	92944	47.41	242.45
7	93142	47.51	242.45
7	93319	47.61	242.45
7	93505	47.71	242.45
7	93697	47.81	242.45
7	93895	47.91	242.45
7	94089	48.01	242.45
7	94284	48.11	242.45
7	94470	48.21	242.45
7	94662	48.31	242.45
7	94854	48.41	242.45
7	95046	48.51	242.45
7	95241	48.61	242.45
7	95427	48.71	242.45
7	95622	48.81	242.45
7	95817	48.91	242.45
7	96026	49.01	242.45
7	96221	49.11	242.45
7	96416	49.21	242.45
7	96611	49.31	242.45
7	96803	49.41	242.45
7	97001	49.51	242.45
7	97196	49.61	242.45
7	97397	49.71	242.45
7	97586	49.81	242.45
7	97775	49.91	242.45
7	97978	50.01	242.45
7	98170	50.11	242.45
7	98368	50.21	242.45
7	98569	50.31	242.45
7	98773	50.41	242.45
7	98977	50.51	242.45
7	99172	50.61	242.45
7	99361	50.71	242.45
7	99556	50.81	242.45
7	99748	50.91	242.45
7	99945	51.01	242.45
7	100137	51.11	242.45
7	100323	51.21	242.45
7	100524	51.31	242.45
7	100716	51.41	242.45
7	100917	51.51	242.45
7	101109	51.61	242.45
7	101304	51.71	242.45
7	101508	51.81	242.45
7	101700	51.91	242.45
7	101900	52.01	242.45
7	102089	52.11	242.45
7	102299	52.21	242.45
7	102497	52.31	242.45
7	102689	52.41	242.45
7	102896	52.51	242.45
7	103091	52.61	242.45
7	103283	52.71	242.45
7	103481	52.81	242.45
7	103673	52.91	242.45
7	103876	53.01	242.45
7	104071	53.11	242.45
7	104260	53.21	242.45
7	104458	53.31	242.45
7	104662	53.41	242.45
7	104842	53.51	242.45
7	105037	53.61	242.45
7	105229	53.71	242.45
7	105415	53.81	242.45
7	105622	53.91	242.45
7	105822	54.01	242.45
7	106020	54.11	242.45
7	106221	54.21	242.45
7	106419	54.31	242.45
7	106611	54.41	242.45
7	106800	54.51	242.45
7	106980	54.61	242.45
7	107166	54.71	242.45
7	107361	54.81	242.45
7	107562	54.91	242.45
7	107762	55.01	242.45
7	107960	55.11	242.45
7	108152	55.21	242.45
7	108347	55.31	242.45
7	108539	55.41	242.45
7	108746	55.51	242.45
7	108950	55.61	242.45
7	109151	55.71	242.45
7	109346	55.81	242.45
7	109538	55.91	242.45
7	109747	56.01	242.45
7	109942	56.11	242.45
7	110140	56.21	242.45
7	110329	56.31	242.45
7	110521	56.41	242.45
7	110713	56.51	242.45
7	110896	56.61	242.45
7	111094	56.71	242.45
7	111289	56.81	242.45
7	111478	56.91	242.45
7	111669	57.01	242.45
7	111870	57.11	242.45
7	112056	57.21	242.45
7	112254	57.31	242.45
7	112443	57.41	242.45
7	112629	57.51	242.45
7	112818	57.61	242.45
7	113013	57.71	242.45
7	113205	57.81	242.45
7	113403	57.91	242.45
7	113600	58.01	242.45
7	114077	58.11	242.45
7	114275	58.21	242.45
7	114479	58.31	242.45
7	114680	58.41	242.45
7	114878	58.51	242.45
7	115070	58.61	242.45
7	115265	58.71	242.45
7	115457	58.81	242.45
7	115643	58.91	242.45
7	115849	59.01	242.45
7	116047	59.11	242.45
7	116245	59.21	242.45
7	116440	59.31	242.45
7	116629	59.41	242.45
7	116827	59.51	242.45
7	117016	59.61	242.45
7	117223	59.71	242.45
7	117412	59.81	242.45
7	117610	59.91	242.45
7	117825	60.01	242.45
7	118029	60.11	242.45
7	118227	60.21	242.45
7	118422	60.31	242.45
7	118626	60.41	242.45
7	118833	60.51	242.45
7	119031	60.61	242.45
7	119232	60.71	242.45
7	119406	60.81	242.45
7	119607	60.91	242.45
7	119801	61.01	242.45
7	119987	61.11	242.45
7	120173	61.21	242.45
7	120377	61.31	242.45
7	120578	61.41	242.45
7	120764	61.51	242.45
7	120962	61.61	242.45
7	121163	61.71	242.45
7	121367	61.81	242.45
7	121562	61.91	242.45
7	121756	62.01	242.45
7	121951	62.11	242.45
7	122143	62.21	242.45
7	122332	62.31	242.45
7	122527	62.41	242.45
7	122734	62.51	242.45
7	122938	62.61	242.45
7	123124	62.71	242.45
7	123319	62.81	242.45
7	123520	62.91	242.45
7	123717	63.01	242.45
7	123900	63.11	242.45
7	124104	63.21	242.45
7	124302	63.31	242.45
7	124488	63.41	242.45
7	124686	63.51	242.45
7	124866	63.61	242.45
7	125067	63.71	242.45
7	125259	63.81	242.45
7	125466	63.91	242.45
7	125678	64.01	242.45
7	125867	64.11	242.45
7	126074	64.21	242.45
7	126269	64.31	242.45
7	126467	64.41	242.45
7	126665	64.51	242.45
7	126851	64.61	242.45
7	127037	64.71	242.45
7	127238	64.81	242.45
7	127439	64.91	242.45
7	127651	65.01	242.45
7	127837	65.11	242.45
7	128032	65.21	242.45
7	128230	65.31	242.45
7	128425	65.41	242.45
7	128614	65.51	242.45
7	128809	65.61	242.45
7	129010	65.71	242.45
7	129202	65.81	242.45
7	129400	65.91	242.45
7	131543	66.01	245.75
7	131735	66.11	245.75
7	131930	66.21	245.75
7	132125	66.31	245.75
7	132326	66.41	245.75
7	132521	66.51	245.75
7	132716	66.61	245.75
7	132905	66.71	245.75
7	133103	66.81	245.75
7	133289	66.91	245.75
7	133495	67.01	245.75
7	133705	67.11	245.75
7	133906	67.21	245.75
7	134113	67.31	245.75
7	134305	67.41	245.75
7	134497	67.51	245.75
7	134695	67.61	245.75
7	134890	67.71	245.75
7	135094	67.81	245.75
7	135289	67.91	245.75
7	135495	68.01	245.75
7	135696	68.11	245.75
7	135879	68.21	245.75
7	136077	68.31	245.75
7	136284	68.41	245.75
7	136473	68.51	245.75
7	136668	68.61	245.75
7	136866	68.71	245.75
7	137061	68.81	245.75
7	137253	68.91	245.75
7	137456	69.01	245.75
7	137648	69.11	245.75
7	137840	69.21	245.75
7	138041	69.31	245.75
7	138227	69.41	245.75
7	138413	69.51	245.75
7	138605	69.61	245.75
7	138791	69.71	245.75
7	138992	69.81	245.75
7	139184	69.91	245.75
7	139384	70.01	245.75
7	139579	70.11	245.75
7	139768	70.21	245.75
7	139957	70.31	245.75
7	140155	70.41	245.75
7	140368	70.51	245.75
7	140557	70.61	245.75
7	140752	70.71	245.75
7	140956	70.81	245.75
7	141139	70.91	245.75
7	141330	71.01	245.75
7	141525	71.11	245.75
7	141738	71.21	245.75
7	141921	71.31	245.75
7	142110	71.41	245.75
7	142317	71.51	245.75
7	142509	71.61	245.75
7	142710	71.71	245.75
7	142896	71.81	245.75
7	143091	71.91	245.75
7	143291	72.01	245.75
7	143495	72.11	245.75
7	143690	72.21	245.75
7	143894	72.31	245.75
7	144095	72.41	245.75
7	144290	72.51	245.75
7	144491	72.61	245.75
7	144686	72.71	245.75
7	144881	72.81	245.75
7	145079	72.91	245.75
7	145291	73.01	245.75
7	145492	73.11	245.75
7	145693	73.21	245.75
7	145882	73.31	245.75
7	146074	73.41	245.75
7	146275	73.51	245.75
7	146476	73.61	245.75
7	146671	73.71	245.75
7	146869	73.81	245.75
7	147073	73.91	245.75
7	147273	74.01	245.75
7	147465	74.11	245.75
7	147654	74.21	245.75
7	147843	74.31	245.75
7	148038	74.41	245.75
7	148236	74.51	245.75
7	148431	74.61	245.75
7	148638	74.71	245.75
7	148845	74.81	245.75
7	149037	74.91	245.75
7	149237	75.01	245.75
7	149432	75.11	245.75
7	149627	75.21	245.75
7	149816	75.31	245.75
7	150005	75.41	245.75
7	150194	75.51	245.75
7	150398	75.61	245.75
7	150587	75.71	245.75
7	150788	75.81	245.75
7	150986	75.91	245.75
7	151180	76.01	245.75
7	151378	76.11	245.75
7	151573	76.21	245.75
7	151759	76.31	245.75
7	151954	76.41	245.75
7	152158	76.51	245.75
7	152347	76.61	245.75
7	152542	76.71	245.75
7	152731	76.81	245.75
7	152926	76.91	245.75
7	153129	77.01	245.75
7	153321	77.11	245.75
7	153510	77.21	245.75
7	153708	77.31	245.75
7	153897	77.41	245.75
7	154086	77.51	245.75
7	154272	77.61	245.75
7	154464	77.71	245.75
7	154650	77.81	245.75
7	154854	77.91	245.75
7	155057	78.01	245.75
7	155252	78.11	245.75
7	155450	78.21	245.75
7	155654	78.31	245.75
7	155846	78.41	245.75
7	156020	78.51	245.75
7	156203	78.61	245.75
7	156398	78.71	245.75
7	156608	78.81	245.75
7	156815	78.91	245.75
7	157006	79.01	245.75
7	157207	79.11	245.75
7	157408	79.21	245.75
7	157612	79.31	245.75
7	157807	79.41	245.75
7	158008	79.51	245.75
7	158203	79.61	245.75
7	158407	79.71	245.75
7	158599	79.81	245.75
7	158785	79.91	245.75
7	158982	80.01	245.75
7	159180	80.11	245.75
7	159384	80.21	245.75
7	159576	80.31	245.75
7	159762	80.41	245.75
7	159969	80.51	245.75
7	160170	80.61	245.75
7	160371	80.71	245.75
7	160569	80.81	245.75
7	160770	80.91	245.75
7	160955	81.01	245.75
7	161144	81.11	245.75
7	161336	81.21	245.75
7	161522	81.31	245.75
7	161711	81.41	245.75
7	161900	81.51	245.75
7	162095	81.61	245.75
7	162296	81.71	245.75
7	162479	81.81	245.75
7	162677	81.91	245.75
7	162877	82.01	245.75
7	163066	82.11	245.75
7	163264	82.21	245.75
7	163468	82.31	245.75
7	163681	82.41	245.75
7	163888	82.51	245.75
7	164074	82.61	245.75
7	164254	82.71	245.75
7	164461	82.81	245.75
7	164659	82.91	245.75
7	164868	83.01	245.75
7	165060	83.11	245.75
7	165246	83.21	245.75
7	165438	83.31	245.75
7	165624	83.41	245.75
7	165828	83.51	245.75
7	166026	83.61	245.75
7	166236	83.71	245.75
7	166431	83.81	245.75
7	166629	83.91	245.75
7	166832	84.01	245.75
7	167021	84.11	245.75
7	167234	84.21	245.75
7	167423	84.31	245.75
7	167603	84.41	245.75
7	167801	84.51	245.75
7	167996	84.61	245.75
7	168176	84.71	245.75
7	168374	84.81	245.75
7	168566	84.91	245.75
7	168772	85.01	245.75
7	168961	85.11	245.75
7	169153	85.21	245.75
7	169351	85.31	245.75
7	169537	85.41	245.75
7	169732	85.51	245.75
7	169933	85.61	245.75
7	170125	85.71	245.75
7	170326	85.81	245.75
7	170533	85.91	245.75
7	170727	86.01	245.75
7	170922	86.11	245.75
7	171126	86.21	245.75
7	171321	86.31	245.75
7	171510	86.41	245.75
7	171717	86.51	245.75
7	171909	86.61	245.75
7	172098	86.71	245.75
7	172293	86.81	245.75
7	172479	86.91	245.75
7	172688	87.01	245.75
7	172880	87.11	245.75
7	173087	87.21	245.75
7	173267	87.31	245.75
7	173465	87.41	245.75
7	173660	87.51	245.75
7	173852	87.61	245.75
7	174056	87.71	245.75
7	174263	87.81	245.75
7	174455	87.91	245.75
7	174652	88.01	245.75
7	174841	88.11	245.75
7	175030	88.21	245.75
7	175234	88.31	245.75
7	175432	88.41	245.75
7	175624	88.51	245.75
7	175816	88.61	245.75
7	176008	88.71	245.75
7	176209	88.81	245.75
7	176407	88.91	245.75
7	176598	89.01	245.75
7	176799	89.11	245.75
7	177006	89.21	245.75
7	177207	89.31	245.75
7	177393	89.41	245.75
7	177600	89.51	245.75
7	177795	89.61	245.75
7	177996	89.71	245.75
7	178188	89.81	245.75
7	178374	89.91	245.75
6	113	1.11	46.9402
6	311	1.21	49.7182
6	506	1.31	52.4962
6	704	1.41	55.2742
6	908	1.51	58.0521
6	1103	1.61	60.8301
6	1310	1.71	63.608
6	1502	1.81	66.386
6	1694	1.91	69.1639
6	1909	2.01	71.9418
6	2092	2.11	74.7197
6	2281	2.21	77.4975
6	2488	2.31	80.2754
6	2686	2.41	83.0532
6	2881	2.51	85.8311
6	3070	2.61	88.6089
6	3274	2.71	91.3867
6	3481	2.81	94.1645
6	3664	2.91	96.9423
6	3867	3.01	99.7201
6	4050	3.11	102.498
6	4239	3.21	105.276
6	4431	3.31	108.054
6	4623	3.41	110.831
6	4812	3.51	113.609
6	5004	3.61	116.387
6	5205	3.71	119.165
6	5397	3.81	121.942
6	5595	3.91	124.72
6	5798	4.01	127.498
6	5990	4.11	130.276
6	6182	4.21	133.053
6	6371	4.31	135.831
6	6563	4.41	138.609
6	6764	4.51	141.387
6	6959	4.61	144.165
6	7154	4.71	146.942
6	7364	4.81	149.72
6	7550	4.91	152.498
6	7759	5.01	155.276
6	7960	5.11	158.053
6	8158	5.21	160.831
6	8356	5.31	163.609
6	8548	5.41	166.387
6	8746	5.51	169.165
6	8947	5.61	171.942
6	9127	5.71	174.72
6	9334	5.81	177.498
6	9529	5.91	180.276
6	9717	6.01	183.053
6	9918	6.11	185.831
6	10119	6.21	188.609
6	10308	6.31	191.387
6	10497	6.41	194.165
6	10686	6.51	196.942
6	10896	6.61	199.72
6	11103	6.71	202.498
6	11295	6.81	205.276
6	11490	6.91	208.053
6	11699	7.01	210.831
6	11882	7.11	213.609
6	12080	7.21	216.387
6	12260	7.31	219.165
6	12458	7.41	221.942
6	12653	7.51	224.72
6	12839	7.61	227.498
6	13043	7.71	230.276
6	13238	7.81	233.053
6	13430	7.91	235.831
6	13633	8.01	238.609
6	13837	8.11	241.387
6	14035	8.21	244.165
6	14233	8.31	246.942
6	14428	8.41	249.72
6	14620	8.51	252.498
6	14818	8.61	255.276
6	15007	8.71	258.053
6	15205	8.81	260.831
6	15403	8.91	263.609
6	15606	9.01	266.387
6	15804	9.11	269.165
6	15996	9.21	271.942
6	16194	9.31	274.72
6	16386	9.41	277.498
6	16578	9.51	280.276
6	16773	9.61	283.053
6	16974	9.71	285.831
6	17160	9.81	288.609
6	17352	9.91	291.387
6	17549	10.01	294.165
6	17738	10.11	296.942
6	17927	10.21	299.72
6	18134	10.31	302.498
6	18326	10.41	305.276
6	18521	10.51	308.054
6	18713	10.61	310.831
6	18890	10.71	313.609
6	19088	10.81	316.387
6	19283	10.91	319.165
6	19484	11.01	321.942
6	20838	11.11	324.72
6	21024	11.21	327.498
6	21222	11.31	330.276
6	21423	11.41	333.054
6	21624	11.51	335.831
6	21816	11.61	338.609
6	21999	11.71	341.387
6	22185	11.81	344.165
6	22377	11.91	346.942
6	22577	12.01	349.72
6	22772	12.11	352.498
6	22964	12.21	355.276
6	23153	12.31	358.054
6	23348	12.41	360.831
6	23534	12.51	363.609
6	23738	12.61	366.387
6	23933	12.71	369.165
6	24134	12.81	371.942
6	24320	12.91	374.72
6	24523	13.01	377.498
6	24727	13.11	380.276
6	24925	13.21	383.054
6	25114	13.31	385.831
6	25303	13.41	388.609
6	25492	13.51	391.387
6	25687	13.61	394.165
6	25888	13.71	396.942
6	26086	13.81	399.72
6	26278	13.91	402.498
6	26481	14.01	405.276
6	26676	14.11	408.054
6	26877	14.21	410.831
6	27084	14.31	413.609
6	27288	14.41	416.387
6	27486	14.51	419.165
6	27678	14.61	421.942
6	27870	14.71	424.72
6	28062	14.81	427.498
6	28254	14.91	430.276
6	28457	15.01	433.054
6	28664	15.11	435.831
6	28856	15.21	438.609
6	29060	15.31	441.387
6	29261	15.41	444.165
6	29456	15.51	446.943
6	29639	15.61	449.72
6	29843	15.71	452.498
6	30044	15.81	455.276
6	30242	15.91	458.054
6	30451	16.01	460.831
6	30643	16.11	463.609
6	30841	16.21	466.387
6	31030	16.31	469.165
6	31228	16.41	471.943
6	31420	16.51	474.72
6	31621	16.61	477.498
6	31816	16.71	480.276
6	32011	16.81	483.054
6	32218	16.91	485.831
6	32427	17.01	488.609
6	32628	17.11	491.387
6	32817	17.21	494.165
6	33015	17.31	496.943
6	33225	17.41	499.72
6	33408	17.51	502.498
6	33609	17.61	505.276
6	33810	17.71	508.054
6	34002	17.81	510.831
6	34191	17.91	513.609
6	34385	18.01	516.387
6	34580	18.11	519.165
6	34781	18.21	521.943
6	34964	18.31	524.72
6	35165	18.41	527.498
6	35354	18.51	530.276
6	35543	18.61	533.054
6	35741	18.71	535.831
6	35936	18.81	538.609
6	36143	18.91	541.387
6	36346	19.01	544.165
6	36535	19.11	546.943
6	36730	19.21	549.72
6	36922	19.31	552.498
6	37123	19.41	555.276
6	37312	19.51	558.054
6	37507	19.61	560.831
6	37699	19.71	563.609
6	37903	19.81	566.387
6	38095	19.91	569.165
6	38295	20.01	571.943
6	38496	20.11	574.72
6	38697	20.21	577.498
6	38889	20.31	580.276
6	39081	20.41	583.054
6	39282	20.51	585.832
6	39477	20.61	588.609
6	39666	20.71	591.387
6	39852	20.81	594.165
6	40044	20.91	596.943
6	40244	21.01	599.72
6	40436	21.11	602.498
6	40634	21.21	605.276
6	40832	21.31	608.054
6	41033	21.41	610.832
6	41231	21.51	613.609
6	41432	21.61	616.387
6	41627	21.71	619.165
6	41822	21.81	621.943
6	42023	21.91	624.72
6	42220	22.01	627.498
6	42406	22.11	630.276
6	42586	22.21	633.054
6	42775	22.31	635.832
6	42964	22.41	638.609
6	43171	22.51	641.387
6	43363	22.61	644.165
6	43561	22.71	646.943
6	43756	22.81	649.72
6	43954	22.91	652.498
6	44148	23.01	655.276
6	44340	23.11	658.054
6	44535	23.21	660.832
6	44733	23.31	663.609
6	44925	23.41	666.387
6	45422	23.51	669.165
6	45620	23.61	671.943
6	45815	23.71	674.72
6	46010	23.81	677.498
6	46190	23.91	680.276
6	46396	24.01	683.054
6	46597	24.11	685.832
6	46801	24.21	688.609
6	46987	24.31	691.387
6	47185	24.41	694.165
6	47383	24.51	696.943
6	47575	24.61	699.72
6	47770	24.71	702.498
6	47962	24.81	705.276
6	48157	24.91	708.054
6	48354	25.01	710.832
6	48555	25.11	713.609
6	48750	25.21	716.387
6	48936	25.31	719.165
6	49140	25.41	721.943
6	49326	25.51	724.721
6	49512	25.61	727.498
6	49701	25.71	730.276
6	49893	25.81	733.054
6	50100	25.91	735.832
6	50303	26.01	738.609
6	50492	26.11	741.387
6	50687	26.21	744.165
6	50873	26.31	746.943
6	51068	26.41	749.721
6	51254	26.51	752.498
6	51452	26.61	755.276
6	51647	26.71	758.054
6	51854	26.81	760.832
6	52043	26.91	763.609
6	52243	27.01	766.387
6	52438	27.11	769.165
6	52633	27.21	771.943
6	52816	27.31	774.721
6	53020	27.41	777.498
6	53218	27.51	780.276
6	53413	27.61	783.054
6	53599	27.71	785.832
6	53797	27.81	788.609
6	53995	27.91	791.387
6	54204	28.01	794.165
6	54402	28.11	796.943
6	54582	28.21	799.721
6	54771	28.31	802.498
6	54969	28.41	805.276
6	55176	28.51	808.054
6	55359	28.61	810.832
6	55563	28.71	813.609
6	55758	28.81	816.387
6	55950	28.91	819.165
6	56147	29.01	821.943
6	56330	29.11	824.721
6	56531	29.21	827.498
6	56723	29.31	830.276
6	56912	29.41	833.054
6	57113	29.51	835.832
6	57305	29.61	838.609
6	57488	29.71	841.387
6	57680	29.81	844.165
6	57872	29.91	846.943
6	58078	30.01	849.721
6	58282	30.11	852.498
6	58486	30.21	855.276
6	58675	30.31	858.054
6	58882	30.41	860.832
6	59077	30.51	863.61
6	59269	30.61	866.387
6	59470	30.71	869.165
6	59650	30.81	871.943
6	60374	30.91	874.721
6	60571	31.01	877.498
6	60763	31.11	880.276
6	60952	31.21	883.054
6	61150	31.31	885.832
6	61333	31.41	888.61
6	61528	31.51	891.387
6	61729	31.61	894.165
6	61924	31.71	896.943
6	62125	31.81	899.721
6	62332	31.91	902.498
6	62526	32.01	905.276
6	62724	32.11	908.054
6	62913	32.21	910.832
6	63111	32.31	913.61
6	63306	32.41	916.387
6	63513	32.51	919.165
6	63696	32.61	921.943
6	63891	32.71	924.721
6	64080	32.81	927.498
6	64272	32.91	930.276
6	64487	33.01	933.054
6	64676	33.11	935.832
6	64871	33.21	938.61
6	65060	33.31	941.387
6	65249	33.41	944.165
6	65444	33.51	946.943
6	65639	33.61	949.721
6	65837	33.71	952.498
6	66023	33.81	955.276
6	66215	33.91	958.054
6	66400	34.01	960.832
6	66595	34.11	963.61
6	66790	34.21	966.387
6	66988	34.31	969.165
6	67183	34.41	971.943
6	67390	34.51	974.721
6	67585	34.61	977.498
6	67768	34.71	980.276
6	67960	34.81	983.054
6	68161	34.91	985.832
6	68358	35.01	988.61
6	68550	35.11	991.387
6	68748	35.21	994.165
6	68943	35.31	996.943
6	69144	35.41	999.721
6	69339	35.51	1002.5
6	69531	35.61	1005.28
6	69720	35.71	1008.05
6	69921	35.81	1010.83
6	70104	35.91	1013.61
6	70304	36.01	1016.39
6	70499	36.11	1019.17
6	70703	36.21	1021.94
6	70904	36.31	1024.72
6	71096	36.41	1027.5
6	71291	36.51	1030.28
6	71489	36.61	1033.05
6	71684	36.71	1035.83
6	71882	36.81	1038.61
6	72074	36.91	1041.39
6	72274	37.01	1044.17
6	72469	37.11	1046.94
6	72667	37.21	1049.72
6	72859	37.31	1052.5
6	73045	37.41	1055.28
6	73246	37.51	1058.05
6	73459	37.61	1060.83
6	73639	37.71	1063.61
6	73834	37.81	1066.39
6	74014	37.91	1069.17
6	74214	38.01	1071.94
6	74400	38.11	1074.72
6	74592	38.21	1077.5
6	74796	38.31	1080.28
6	74988	38.41	1083.05
6	75189	38.51	1085.83
6	75375	38.61	1088.61
6	75570	38.71	1091.39
6	75759	38.81	1094.17
6	75963	38.91	1096.94
6	76151	39.01	1099.72
6	76346	39.11	1102.5
6	76541	39.21	1105.28
6	76727	39.31	1108.05
6	76928	39.41	1110.83
6	77126	39.51	1113.61
6	77324	39.61	1116.39
6	77513	39.71	1119.17
6	77702	39.81	1121.94
6	77891	39.91	1124.72
6	78097	40.01	1127.5
6	78289	40.11	1130.28
6	78484	40.21	1133.05
6	78679	40.31	1135.83
6	78877	40.41	1138.61
6	79063	40.51	1141.39
6	79270	40.61	1144.17
6	79462	40.71	1146.94
6	79666	40.81	1149.72
6	79861	40.91	1152.5
6	80055	41.01	1155.28
6	80259	41.11	1158.05
6	80451	41.21	1160.83
6	80643	41.31	1163.61
6	80844	41.41	1166.39
6	81033	41.51	1169.17
6	81228	41.61	1171.94
6	81432	41.71	1174.72
6	81633	41.81	1177.5
6	81834	41.91	1180.28
6	82022	42.01	1183.05
6	82217	42.11	1185.83
6	82412	42.21	1188.61
6	82613	42.31	1191.39
6	82823	42.41	1194.17
6	83012	42.51	1196.94
6	83207	42.61	1199.72
6	83411	42.71	1202.5
6	83606	42.81	1205.28
6	83792	42.91	1208.05
6	83989	43.01	1210.83
6	84184	43.11	1213.61
6	84385	43.21	1216.39
6	84580	43.31	1219.17
6	84781	43.41	1221.94
6	84985	43.51	1224.72
6	85168	43.61	1227.5
6	85360	43.71	1230.28
6	85552	43.81	1233.05
6	85732	43.91	1235.83
6	85944	44.01	1238.61
6	86148	44.11	1241.39
6	86337	44.21	1244.17
6	86529	44.31	1246.94
6	86706	44.41	1249.72
6	86892	44.51	1252.5
6	87087	44.61	1255.28
6	87285	44.71	1258.05
6	87477	44.81	1260.83
6	87666	44.91	1263.61
6	87872	45.01	1266.39
6	88067	45.11	1269.17
6	88271	45.21	1271.94
6	88469	45.31	1274.72
6	88658	45.41	1277.5
6	88847	45.51	1280.28
6	89412	45.61	1283.05
6	89598	45.71	1285.83
6	89778	45.81	1288.61
6	89970	45.91	1291.39
6	90167	46.01	1294.17
6	90365	46.11	1296.94
6	90566	46.21	1299.72
6	90779	46.31	1302.5
6	90977	46.41	1305.28
6	91175	46.51	1308.05
6	91367	46.61	1310.83
6	91568	46.71	1313.61
6	91760	46.81	1316.39
6	91958	46.91	1319.17
6	92155	47.01	1321.94
6	92356	47.11	1324.72
6	92551	47.21	1327.5
6	92752	47.31	1330.28
6	92944	47.41	1333.05
6	93142	47.51	1335.83
6	93319	47.61	1338.61
6	93505	47.71	1341.39
6	93697	47.81	1344.17
6	93895	47.91	1346.94
6	94089	48.01	1349.72
6	94284	48.11	1352.5
6	94470	48.21	1355.28
6	94662	48.31	1358.05
6	94854	48.41	1360.83
6	95046	48.51	1363.61
6	95241	48.61	1366.39
6	95427	48.71	1369.17
6	95622	48.81	1371.94
6	95817	48.91	1374.72
6	96026	49.01	1377.5
6	96221	49.11	1380.28
6	96416	49.21	1383.05
6	96611	49.31	1385.83
6	96803	49.41	1388.61
6	97001	49.51	1391.39
6	97196	49.61	1394.17
6	97397	49.71	1396.94
6	97586	49.81	1399.72
6	97775	49.91	1402.5
6	97978	50.01	1405.28
6	98170	50.11	1408.05
6	98368	50.21	1410.83
6	98569	50.31	1413.61
6	98773	50.41	1416.39
6	98977	50.51	1419.17
6	99172	50.61	1421.94
6	99361	50.71	1424.72
6	99556	50.81	1427.5
6	99748	50.91	1430.28
6	99945	51.01	1433.05
6	100137	51.11	1435.83
6	100323	51.21	1438.61
6	100524	51.31	1441.39
6	100716	51.41	1444.17
6	100917	51.51	1446.94
6	101109	51.61	1449.72
6	101304	51.71	1452.5
6	101508	51.81	1455.28
6	101700	51.91	1458.05
6	101900	52.01	1460.83
6	102089	52.11	1463.61
6	102299	52.21	1466.39
6	102497	52.31	1469.17
6	102689	52.41	1471.94
6	102896	52.51	1474.72
6	103091	52.61	1477.5
6	103283	52.71	1480.28
6	103481	52.81	1483.05
6	103673	52.91	1485.83
6	103876	53.01	1488.61
6	104071	53.11	1491.39
6	104260	53.21	1494.17
6	104458	53.31	1496.94
6	104662	53.41	1499.72
6	104842	53.51	1502.5
6	105037	53.61	1505.28
6	105229	53.71	1508.05
6	105415	53.81	1510.83
6	105622	53.91	1513.61
6	105822	54.01	1516.39
[...]
43	132891	66.703544836926	4
43	133889	67.203545490434	4
43	134096	67.303537823928	4
43	134291	67.403543158526	4
43	134483	67.503548494303	4
43	135481	68.003536193652	4
43	135685	68.103541538177	4
43	136849	68.703547644904	4
43	137242	68.903545364257	4
43	138024	69.30354083278	4
43	138588	69.603543963036	4
43	139170	69.903547120719	4
43	139562	70.103544908954	4
43	139754	70.20353730828	4
43	140141	70.403548117806	4
43	140351	70.503540528194	4
43	140735	70.703538360682	4
43	141313	71.003541640107	4
43	141514	71.103547075146	4
43	141721	71.203539514623	4
43	141910	71.303544958632	4
43	142297	71.503542860605	4
43	142495	71.603548318737	4
43	142696	71.703540781734	4
43	143074	71.903538722598	4
43	143277	72.003544200588	4
43	143874	72.303547665386	4
43	144081	72.40354016406	4
43	144276	72.503545667991	4
43	144471	72.603538177203	4
43	145274	73.003547267206	4
43	145676	73.203545344249	4
43	145868	73.303537890799	4
43	146264	73.50353599996	4
43	146462	73.603541562568	4
43	146654	73.703547130525	4
43	146855	73.803539703828	4
43	147056	73.903545282471	4
43	147451	74.103543455766	4
43	148024	74.403547255663	4
43	148216	74.503539866267	4
43	148624	74.703538103406	4
43	149023	74.90353636177	4
43	149421	75.103547641334	4
43	149802	75.303545942085	4
43	150177	75.503544264011	4
43	150378	75.603536932912	4
43	151163	76.003546661442	4
43	151364	76.103539356806	4
43	151559	76.203545057466	4
43	151745	76.303537763419	4
43	152141	76.503536191218	4
43	152333	76.603541913066	4
43	152915	76.903546110417	4
43	153109	77.003538853475	4
43	153694	77.303543114496	4
43	154447	77.703540203563	4
43	154639	77.803545989123	4
43	154840	77.903538780005	4
43	155439	78.203543184591	4
43	155829	78.403541814288	4
43	156381	78.703546298824	4
43	156801	78.903544981865	4
43	156995	79.003537831395	4
43	157592	79.303542412051	4
43	157793	79.403548282963	4
43	158000	79.503541159224	4
43	158192	79.603547040837	4
43	158974	80.003544620841	4
43	159376	80.203543443	4
43	159955	80.50354821647	4
43	160759	80.903545989604	4
43	162087	81.603535799637	4
43	162282	81.703541794035	4
43	162468	81.803547793825	4
43	162863	82.003546809579	4
43	163454	82.303538873676	4
43	163667	82.403544905837	4
43	163877	82.503537943401	4
43	164063	82.603543986367	4
43	164246	82.703537034737	4
43	164447	82.803543088514	4
43	164648	82.903536147698	4
43	165049	83.103548282293	4
43	165430	83.303547438537	4
43	165613	83.403540524781	4
43	165817	83.503546616442	4
43	166225	83.70354581602	4
43	166621	83.903545037284	4
43	167010	84.103544280244	4
43	167223	84.203537409863	4
43	168165	84.703542139418	4
43	168555	84.903541469276	4
43	168758	85.003547642362	4
43	168950	85.103540820888	4
43	169337	85.303540194263	4
43	169526	85.403546389115	4
43	169919	85.603545795154	4
43	170315	85.803545222981	4
43	170519	85.903538445067	4
43	170911	86.103537905597	4
43	171502	86.403543637293	4
43	171706	86.503536892105	4
43	172282	86.803542689292	4
43	172677	87.003542248055	4
43	173073	87.203541828674	4
43	174042	87.703547375893	4
43	174444	87.903547033072	4
43	175616	88.503546135999	4
43	176000	88.703545880799	4
43	176992	89.203538838733	4
43	177589	89.503545079312	4
43	177787	89.603538503815	4
55	1615	1.85448786129	4
55	1825	1.954480101454	4
55	2019	2.054485341618	4
55	2205	2.154477581782	4
55	2607	2.35448806211	4
55	3192	2.6544777826	4
55	4352	3.254483223575	4
55	4544	3.354488463737	4
55	4931	3.554485944061	4
55	5120	3.654478184223	4
55	5513	3.854488664547	4
55	5720	3.954480904709	4
55	5914	4.054486144871	4
55	6298	4.254483625195	4
55	6685	4.454481105519	4
55	6880	4.554486345681	4
55	7072	4.654478585843	4
55	7672	4.954481306329	4
55	7875	5.054486546491	4
55	8082	5.154478786653	4
55	8271	5.254484026816	4
55	8469	5.354489266979	4
55	9057	5.654478987468	4
55	9252	5.754484227631	4
55	9453	5.854489467794	4
55	9833	6.05448694812	4
55	10034	6.154479188283	4
55	10232	6.254484428446	4
55	10418	6.354476668609	4
55	10613	6.454481908772	4
55	10811	6.554487148935	4
55	11021	6.654479389098	4
55	11414	6.854476869424	4
55	13354	7.854477271057	4
55	13755	8.054487751385	4
55	14151	8.254485231713	4
55	14931	8.654480192369	4
55	15126	8.754485432533	4
55	15315	8.854477672697	4
55	15522	8.954482912861	4
55	15719	9.054488153025	4
55	15920	9.154480393189	4
55	17084	9.754485834173	4
55	17273	9.854478074337	4
55	18049	10.254486034993	4
55	18445	10.454483515321	4
55	19009	10.754486235813	4
55	20827	11.103537277203	4
55	21799	11.603537478018	4
55	22174	11.803547958322	4
55	22360	11.903540198475	4
55	22563	12.003545438644	4
55	23916	12.703543121604	4
55	24309	12.903540603631	4
55	24707	13.103538086503	4
55	25286	13.403540812765	4
55	25673	13.603538298469	4
55	25871	13.703543541834	4
55	26072	13.803535785563	4
55	26464	14.003546274174	4
55	26857	14.203543764417	4
55	27064	14.303536010181	4
55	27268	14.403541256391	4
55	27472	14.503546503056	4
55	27853	14.70354399779	4
55	28237	14.90354149446	4
55	28440	15.003546743538	4
55	28644	15.103538993123	4
55	28839	15.20354424322	4
55	29043	15.303536493834	4
55	29625	15.603539248826	4
55	30434	16.003547262982	4
55	30626	16.10353951788	4
55	30830	16.203544773326	4
55	31013	16.303537029321	4
55	31211	16.403542285868	4
55	31406	16.503547542965	4
55	31604	16.603539800615	4
55	32201	16.903542576869	4
55	32617	17.103540097124	4
55	32803	17.203545358074	4
55	32998	17.303537619569	4
55	33394	17.503548144189	4
55	34177	17.903543199884	4
55	34566	18.103540730913	4
55	34767	18.203545997212	4
55	35148	18.403543531361	4
55	35337	18.503535799203	4
55	35724	18.703546336403	4
55	35919	18.803538605752	4
55	36123	18.903543875596	4
55	36710	19.203546688058	4
55	36902	19.303538959839	4
55	37112	19.403544232094	4
55	38081	19.903544600306	4
55	38281	20.003536875304	4
55	38677	20.203547426621	4
55	39067	20.403544979665	4
55	39463	20.603542534398	4
55	39649	20.703547812386	4
55	39835	20.803540090784	4
55	40422	21.10354292838	4
55	41805	21.803540896193	4
55	42389	22.103543744993	4
55	42572	22.203536028619	4
55	43154	22.503538881519	4
55	43349	22.603544166476	4
55	43940	22.903547023263	4
55	44518	23.203536882835	4
55	44719	23.303542169959	4
55	44905	23.403547457379	4
55	45408	23.503536139806	4
55	45606	23.603541427804	4
55	45993	23.803539004648	4
55	46379	24.003536582598	4
55	46586	24.103541871978	4
55	47171	24.4035447417	4
55	47366	24.503537032123	4
55	48143	24.903545196309	4
55	48538	25.103542779858	4
55	48922	25.303540364349	4
55	49126	25.403545656942	4
55	49882	25.803540829585	4
55	50083	25.903546123303	4
55	50475	26.103543711396	4
55	51054	26.403546595156	4
55	51438	26.603544185395	4
55	51837	26.803541776473	4
55	52229	27.003539368382	4
55	52424	27.103544664647	4
55	53003	27.403547554672	4
55	53201	27.503539851754	4
55	53399	27.603545149039	4
55	53984	27.903548042104	4
55	54190	28.003540340194	4
55	54955	28.403548534548	4
55	55159	28.503540833633	4
55	55741	28.803543732076	4
55	56133	29.003541332026	4
55	57477	29.703539438038	4
55	57663	29.803544739679	4
55	58067	30.003542343551	4
55	58472	30.203539948201	4
55	58862	30.403537553628	4
55	59063	30.503542856635	4
55	59255	30.603548159837	4
55	59636	30.803545766824	4
55	60938	31.203544737476	4
55	61136	31.303537044718	4
55	61322	31.403542352164	4
55	61517	31.503547659799	4
55	61712	31.603539967597	4
55	62108	31.803537583562	4
55	62312	31.903542891657	4
55	62902	32.203545815887	4
55	63289	32.40354343155	4
55	63502	32.503535739098	4
55	64252	32.903543966355	4
55	64467	33.00353627222	4
55	64662	33.103541577623	4
55	65049	33.303539186884	4
55	65238	33.403544490671	4
55	65820	33.70354739826	4
55	66009	33.803539699429	4
55	66198	33.903544999872	4
55	66575	34.103542598475	4
55	67169	34.403545490335	4
55	67376	34.50353778593	4
55	68144	34.903545959391	4
55	68536	35.10354354058	4
55	68734	35.203535829747	4
55	69130	35.403546405184	4
55	69517	35.603543976707	4
55	69706	35.703536260986	4
55	69904	35.803541544271	4
55	70093	35.903546826557	4
55	70893	36.303541945683	4
55	71085	36.403547222955	4
55	71865	36.803542322019	4
55	72257	37.003539865559	4
55	72842	37.303542673453	4
55	73235	37.503540207151	4
55	73439	37.603545472547	4
55	74194	38.003540524573	4
55	74386	38.103545785224	4
55	75361	38.603546074678	4
55	75745	38.803543584164	4
55	75946	38.903535837589	4
55	76329	39.103546341846	4
55	76524	39.203538592694	4
55	76713	39.3035438427	4
55	76911	39.403536091873	4
55	77109	39.503541340222	4
55	77685	39.803544080409	4
55	78080	40.003541569907	4
55	78278	40.103546813495	4
55	78662	40.303544298393	4
55	79049	40.503541780319	4
55	79448	40.703539259343	4
55	79844	40.903536735534	4
55	80239	41.10354720897	4
55	80632	41.303544679718	4
55	81022	41.503542147852	4
55	81214	41.603547380961	4
55	81418	41.703539613441	4
55	81619	41.803544845303	4
55	81820	41.903537076556	4
55	82596	42.303544995634	4
55	82806	42.403537223964	4
55	82998	42.503542451734	4
55	83193	42.603547678953	4
55	83592	42.80354513177	4
55	83781	42.903537357385	4
55	84764	43.403537477831	4
55	84968	43.503542700449	4
55	85157	43.603547922595	4
55	85718	43.903537586269	4
55	85927	44.003542806598	4
55	86131	44.103548026491	4
55	86326	44.203540245954	4
55	86515	44.303545464995	4
55	86881	44.503542901838	4
55	87067	44.603548119653	4
55	87268	44.703540337073	4
55	87855	45.003542987026	4
55	88644	45.403537848483	4
55	88833	45.503543062969	4
55	89489	45.629640614958	4
55	89672	45.729645828452	4
55	90652	46.2296458912	4
55	90856	46.329638102844	4
55	91450	46.629640736185	4
55	91843	46.829638157313	4
55	92235	47.029648577826	4
55	92439	47.129640787932	4
55	92631	47.229645997983	4
55	92829	47.329638208011	4
55	93024	47.429643418053	4
55	93213	47.529648628142	4
55	93396	47.629640838312	4
55	93579	47.7296460486	4
55	94163	48.02964868051	4
55	94736	48.329638314707	4
55	95120	48.529648739214	4
55	95315	48.629640952078	4
55	95504	48.729646165391	4
55	95702	48.829638379181	4
55	95900	48.929643593479	4
55	96106	49.029648808314	4
55	96295	49.129641023715	4
55	96493	49.229646239708	4
55	96688	49.32963845632	4
55	96883	49.429643673578	4
55	97075	49.529648891504	4
55	97270	49.629641110127	4
55	97468	49.729646329468	4
55	97660	49.829638549551	4
55	97858	49.929643770394	4
55	98055	50.029648992022	4
55	98250	50.129641214455	4
55	98445	50.22964643771	4
55	98655	50.329638661807	4
55	98856	50.429643886764	4
55	99822	50.929644024952	4
55	100022	51.029636255363	4
55	100400	51.229646719046	4
55	100796	51.429644186605	4
55	101189	51.629641658103	4
55	101384	51.729646895345	4
55	102172	52.129641854367	4
55	102574	52.329639339949	4
55	102775	52.429644584264	4
55	103168	52.629642075943	4
55	103561	52.82963957168	4
55	103956	53.029637071459	4
55	104736	53.42964508305	4
55	105111	53.629642594802	4
55	105498	53.829640110475	4
55	105899	54.029637630026	4
55	106307	54.229648153414	4
55	106871	54.529637945587	4
55	107240	54.729648478354	4
55	107441	54.829640746114	4
55	108625	55.429646371511	4
55	108829	55.529638645487	4
55	109030	55.629643920325	4
55	109423	55.829641472557	4
55	109618	55.92964674994	4
55	110403	56.329641867755	4
55	110979	56.629644714629	4
55	111749	57.029639854782	4
55	112136	57.229637429439	4
55	112706	57.529640296987	4
55	113087	57.729637878974	4
55	113285	57.829643171032	4
55	113677	58.029640757244	4
55	114157	58.129642486288	4
55	114559	58.329640076601	4
55	115150	58.629642967016	4
55	115723	58.929645863083	4
55	115932	59.029638162962	4
55	117096	59.629643973707	4
55	117483	59.82964158133	4
55	118109	60.129644496216	4
55	119111	60.629645029561	4
55	119486	60.829642645694	4
55	119681	60.929647954333	4
55	120457	61.329643192573	4
55	120646	61.429648503032	4
55	121240	61.729638436508	4
55	121636	61.929649060547	4
55	122607	62.42963662655	4
55	122817	62.529641940753	4
55	123393	62.82964488535	4
55	123594	62.929637200879	4
55	124184	63.229640149443	4
55	124373	63.329645466294	4
55	124571	63.429637783476	4
55	124946	63.629648418839	4
55	125339	63.829646055538	4
55	125549	63.929638374389	4
55	125947	64.129649013099	4
55	126154	64.22964133296	4
55	126547	64.429638973701	4
55	127117	64.729641937385	4
55	127908	65.129637227144	4
55	128106	65.22964255046	4
55	128496	65.429640198157	4
55	129477	65.929640823677	4
55	131778	66.113881013389	4
55	131973	66.213886339401	4
55	133329	66.913884635862	4
55	133535	67.013889966641	4
55	133748	67.113882298294	4
55	133949	67.213887630892	4
55	134927	67.713888310707	4
55	135134	67.813880650579	4
55	135329	67.913885991941	4
55	135541	68.013891334874	4
55	135919	68.213889025783	4
55	136120	68.313881373925	4
55	136327	68.413886723972	4
55	136711	68.613884430118	4
55	136906	68.713889786389	4
55	137101	68.813882144904	4
55	137499	69.01387986902	4
55	137688	69.113885234796	4
55	137880	69.213890603167	4
55	138081	69.313882974222	4
55	138267	69.413888348049	4
55	138450	69.513880724736	4
55	138642	69.613886104378	4
55	138834	69.71389148706	4
55	139221	69.913889261915	4
55	139427	70.013881654268	4
55	140993	70.813885923484	4
55	141179	70.913891349833	4
55	141568	71.113889215367	4
55	141775	71.213881654742	4
55	142153	71.413892547168	4
55	142357	71.513885000397	4
55	142552	71.613890458415	4
55	142747	71.713882921296	4
55	142939	71.813888389111	4
55	143331	72.01388633979	4
55	143535	72.113891822765	4
55	143724	72.213884310891	4
55	143931	72.313889804209	4
55	144324	72.513887806555	4
55	144531	72.613880315634	4
55	144723	72.713885830013	4
55	145119	72.913883874732	4
55	145529	73.113881940803	4
55	145727	73.21388748186	4
55	145919	73.31388002827	4
55	146111	73.413885580033	4
55	146312	73.51389113715	4
55	146708	73.713889267431	4
55	147113	73.913887419093	4
55	147310	74.013880002931	4
55	147502	74.113885592102	4
55	148273	74.513882002029	4
55	148882	74.81388586527	4
55	149074	74.91389149696	4
55	149271	75.013884133951	4
55	149469	75.11388977624	4
55	149856	75.313888076707	4
55	150231	75.513886398351	4
55	150621	75.713884741166	4
55	151023	75.913883105154	4
55	151217	76.013888795086	4
55	152387	76.613884045894	4
55	152579	76.713889772909	4
55	152771	76.813882505225	4
55	153355	77.113886734007	4
55	153547	77.213892487551	4
55	153931	77.413891010572	4
55	154120	77.513883780053	4
55	154309	77.61388955485	4
55	154498	77.713882334966	4
55	154894	77.91388091116	4
55	155286	78.113892508647	4
55	155490	78.213885315381	4
55	155880	78.413883944838	4
55	156237	78.613882595625	4
55	156645	78.813881267758	4
55	156849	78.913887111833	4
55	157046	79.013879961251	4
55	157649	79.313884541572	4
55	158240	79.613889170032	4
55	158819	79.91388084668	4
55	159022	80.013886749615	4
55	159220	80.11389265791	4
55	159802	80.41388441498	4
55	160009	80.513890344738	4
55	160606	80.813882166238	4
55	161181	81.113887036117	4
55	161373	81.213880003501	4
55	161937	81.513884937955	4
55	162132	81.613890926878	4
55	162711	81.913882925986	4
55	163298	82.213887973641	4
55	163718	82.413887032402	4
55	163925	82.513880069884	4
55	164294	82.713892161062	4
55	164498	82.813885214761	4
55	164905	83.013884338383	4
55	165865	83.513888742166	4
55	166060	83.613881839174	4
55	166663	83.913887162728	4
55	167058	84.113886405552	4
55	167271	84.213892535105	4
55	167838	84.513884956346	4
55	168414	84.813890426486	4
55	168809	85.013889767097	4
55	169001	85.113882945564	4
55	169190	85.213889129471	4
55	169388	85.313882318821	4
55	169769	85.513881713854	4
55	169967	85.61388791954	4
55	170165	85.713881130673	4
55	170363	85.813887347255	4
55	170959	86.11388002971	4
55	171163	86.213886268102	4
55	171358	86.313892511949	4
55	171544	86.413885761251	4
55	172519	86.913891089652	4
55	172920	87.113890659248	4
55	173124	87.213883952243	4
55	173307	87.313890250705	4
55	173502	87.413883554634	4
55	175067	88.213882183028	4
55	175661	88.513888259015	4
55	176048	88.713888003737	4
55	176249	88.813881384319	4
55	176632	89.013881161934	4
55	176833	89.113887558968	4
55	177046	89.213880961486	4
55	177241	89.313887369491	4
70	1871	2	0
70	3823	3	0
70	5763	4	0
70	7721	5	0
70	9685	6	0
70	11658	7	0
70	13592	8	0
70	15565	9	0
70	17511	10	0
70	19445	11	0
70	22539	12	0
70	24485	13	0
70	26440	14	0
70	28416	15	0
70	30410	16	0
70	32389	17	0
70	34350	18	0
70	36311	19	0
70	38257	20	0
70	40209	21	0
70	42188	22	0
70	44113	23	0
70	46355	24	0
70	48319	25	0
70	50262	26	0
70	52205	27	0
70	54166	28	0
70	56109	29	0
70	58043	30	0
70	60533	31	0
70	62491	32	0
70	64443	33	0
70	66368	34	0
70	68323	35	0
70	70266	36	0
70	72233	37	0
70	74170	38	0
70	76116	39	0
70	78056	40	0
70	80020	41	0
70	81990	42	0
70	83954	43	0
70	85903	44	0
70	87831	45	0
70	90135	46	0
70	92114	47	0
70	94054	48	0
70	95988	49	0
70	97940	50	0
70	99907	51	0
70	101859	52	0
70	103838	53	0
70	105787	54	0
70	107724	55	0
70	109706	56	0
70	111628	57	0
70	113559	58	0
70	115811	59	0
70	117784	60	0
70	119760	61	0
70	121718	62	0
70	123676	63	0
70	125637	64	0
70	127610	65	0
70	131502	66	0
70	133457	67	0
70	135457	68	0
70	137418	69	0
70	139346	70	0
70	141289	71	0
70	143253	72	0
70	145250	73	0
70	147238	74	0
70	149199	75	0
70	151139	76	0
70	153085	77	0
70	155022	78	0
70	156971	79	0
70	158944	80	0
70	160920	81	0
70	162833	82	0
70	164830	83	0
70	166794	84	0
70	168728	85	0
70	170692	86	0
70	172650	87	0
70	174617	88	0
70	176560	89	0
70	178545	90	0
69	1871	2	0.013737
69	3823	3	0.01561
69	5763	4	0.01561
69	7721	5	0.01561
69	9685	6	0.01561
69	11658	7	0.01561
69	13592	8	0.01561
69	15565	9	0.01561
69	17511	10	0.01561
69	19445	11	0.01561
69	22539	12	0.017754120081
69	24485	13	0.01561
69	26440	14	0.01561
69	28416	15	0.01561
69	30410	16	0.01561
69	32389	17	0.01561
69	34350	18	0.01561
69	36311	19	0.01561
69	38257	20	0.01561
69	40209	21	0.01561
69	42188	22	0.01561
69	44113	23	0.01561
69	46355	24	0.016138
69	48319	25	0.01561
69	50262	26	0.01561
69	52205	27	0.01561
69	54166	28	0.01561
69	56109	29	0.01561
69	58043	30	0.01561
69	60533	31	0.01657
69	62491	32	0.01561
69	64443	33	0.01561
69	66368	34	0.01561
69	68323	35	0.01561
69	70266	36	0.01561
69	72233	37	0.01561
69	74170	38	0.01561
69	76116	39	0.01561
69	78056	40	0.01561
69	80020	41	0.01561
69	81990	42	0.01561
69	83954	43	0.01561
69	85903	44	0.01561
69	87831	45	0.01561
69	90135	46	0.016298
69	92114	47	0.01561
69	94054	48	0.01561
69	95988	49	0.01561
69	97940	50	0.01561
69	99907	51	0.01561
69	101859	52	0.01561
69	103838	53	0.01561
69	105787	54	0.01561
69	107724	55	0.01561
69	109706	56	0.01561
69	111628	57	0.01561
69	113559	58	0.01561
69	115811	59	0.016106
69	117784	60	0.01561
69	119760	61	0.01561
69	121718	62	0.01561
69	123676	63	0.01561
69	125637	64	0.01561
69	127610	65	0.01561
69	131502	66	0.01911404933
69	133457	67	0.01561
69	135457	68	0.01561
69	137418	69	0.01561
69	139346	70	0.01561
69	141289	71	0.01561
69	143253	72	0.01561
69	145250	73	0.01561
69	147238	74	0.01561
69	149199	75	0.01561
69	151139	76	0.01561
69	153085	77	0.01561
69	155022	78	0.01561
69	156971	79	0.01561
69	158944	80	0.01561
69	160920	81	0.01561
69	162833	82	0.01561
69	164830	83	0.01561
69	166794	84	0.01561
69	168728	85	0.01561
69	170692	86	0.01561
69	172650	87	0.01561
69	174617	88	0.01561
69	176560	89	0.01561
69	178545	90	0.01561
68	1871	2	4
68	3823	3	4
68	5763	4	4
68	7721	5	4
68	9685	6	4
68	11658	7	4
68	13592	8	4
68	15565	9	4
68	17511	10	4
68	19445	11	4
68	22539	12	4
68	24485	13	4
68	26440	14	4
68	28416	15	4
68	30410	16	4
68	32389	17	4
68	34350	18	4
68	36311	19	4
68	38257	20	4
68	40209	21	4
68	42188	22	4
68	44113	23	4
68	46355	24	4
68	48319	25	4
68	50262	26	4
68	52205	27	4
68	54166	28	4
68	56109	29	4
68	58043	30	4
68	60533	31	4
68	62491	32	4
68	64443	33	4
68	66368	34	4
68	68323	35	4
68	70266	36	4
68	72233	37	4
68	74170	38	4
68	76116	39	4
68	78056	40	4
68	80020	41	4
68	81990	42	4
68	83954	43	4
68	85903	44	4
68	87831	45	4
68	90135	46	4
68	92114	47	4
68	94054	48	4
68	95988	49	4
68	97940	50	4
68	99907	51	4
68	101859	52	4
68	103838	53	4
68	105787	54	4
68	107724	55	4
68	109706	56	4
68	111628	57	4
68	113559	58	4
68	115811	59	4
68	117784	60	4
68	119760	61	4
68	121718	62	4
68	123676	63	4
68	125637	64	4
68	127610	65	4
68	131502	66	4
68	133457	67	4
68	135457	68	4
68	137418	69	4
68	139346	70	4
68	141289	71	4
68	143253	72	4
68	145250	73	4
68	147238	74	4
68	149199	75	4
68	151139	76	4
68	153085	77	4
68	155022	78	4
68	156971	79	4
68	158944	80	4
68	160920	81	4
68	162833	82	4
68	164830	83	4
68	166794	84	4
68	168728	85	4
68	170692	86	4
68	172650	87	4
68	174617	88	4
68	176560	89	4
68	178545	90	4

