version 2
run LeaveManeuver-49-20200701-15:25:45-24795
attr configname LeaveManeuver
attr datetime 20200701-15:25:45
attr experiment LeaveManeuver
attr inifile omnetpp.ini
attr iterationvars "$nCars=5, $platoonSize=5, $nLanes=1, $caccXi=1, $caccOmegaN=0.2, $ploegH=0.5, $leaderHeadway=1.2, $leaderSpeed=100, $beaconInterval=0.1, $priority=2, $packetSize=200"
attr iterationvarsf nCars=5,platoonSize=5,nLanes=1,caccXi=1,caccOmegaN=0.2,ploegH=0.5,leaderHeadway=1.2,leaderSpeed=100,beaconInterval=0.1,priority=2,packetSize=200-
attr measurement "$nCars=5, $platoonSize=5, $nLanes=1, $caccXi=1, $caccOmegaN=0.2, $ploegH=0.5, $leaderHeadway=1.2, $leaderSpeed=100, $beaconInterval=0.1, $priority=2, $packetSize=200"
attr network Highway
attr processid 24795
attr repetition 49
attr replication #49
attr resultdir results
attr runnumber 49
attr seedset 49
itervar beaconInterval 0.1
itervar caccOmegaN 0.2
itervar caccXi 1
itervar leaderHeadway 1.2
itervar leaderSpeed 100
itervar nCars 5
itervar nLanes 1
itervar packetSize 200
itervar platoonSize 5
itervar ploegH 0.5
itervar priority 2
param *.manager.command "\"sumo-gui\""
param *.manager.ignoreGuiCommands false
param *.node[*].scenario_type "\"LeaveManeuverScenario\""
param *.playgroundSizeX 65000m
param *.playgroundSizeY 25000m
param *.playgroundSizeZ 50m
param *.annotations.draw false
param *.obstacles.debug false
param *.world.useTorus false
param *.world.use2D false
param *.manager.updateInterval 0.01s
param *.manager.host "\"localhost\""
param *.manager.moduleType "\"org.car2x.plexe.PlatoonCar\""
param *.manager.moduleName "\"node\""
param *.manager.moduleDisplayString "\"\""
param *.manager.autoShutdown true
param *.manager.margin 25
param *.connectionManager.sendDirect true
param *.connectionManager.maxInterfDist 2600m
param *.connectionManager.drawMaxIntfDist false
param *.**.nic.mac1609_4.useServiceChannel false
param *.**.nic.mac1609_4.txPower 100mW
param *.**.nic.mac1609_4.bitrate 6Mbps
param *.**.nic.mac1609_4.useAcks true
param *.**.nic.mac1609_4.ackErrorRate 0.2
param *.**.nic.mac1609_4.frameErrorRate 0.2
param *.**.nic.phy80211p.minPowerLevel -94dBm
param *.**.nic.phy80211p.maxTXPower 100mW
param *.**.nic.phy80211p.useNoiseFloor true
param *.**.nic.phy80211p.noiseFloor -95dBm
param *.**.nic.phy80211p.decider "xmldoc(\"config.xml\")"
param *.**.nic.phy80211p.analogueModels "xmldoc(\"config.xml\")"
param *.**.nic.phy80211p.usePropagationDelay true
param *.node[*].mobility.x 0
param *.node[*].mobility.y 0
param *.node[*].mobility.z 1.895
param **.seed 49
param *.manager.configFile "\"./sumocfg/freeway.sumo.cfg\""
param **.numberOfCars 5
param **.numberOfCarsPerPlatoon 5
param **.numberOfLanes 1
param **.controllerXi 1
param **.controllerOmegaN 0.2
param *.node[*].helper_type "\"PositionHelper\""
param *.node[*].scenario.caccC1 0.5
param *.node[*].scenario.caccXi 1
param *.node[*].scenario.caccOmegaN "0.2 Hz"
param *.node[*].scenario.caccSpacing "5 m"
param *.node[*].scenario.engineTau "0.5 s"
param *.node[*].scenario.ploegH 0.5s
param *.node[*].scenario.ploegKp 0.2
param *.node[*].scenario.ploegKd 0.7
param *.node[*].scenario.useRealisticEngine false
param **.numericController 0
param *.node[*].scenario.controller "\"CACC\""
param *.node[*].scenario.accHeadway "0.1 s"
param *.node[*].scenario.leaderHeadway 1.2s
param *.node[*].scenario.leaderSpeed 100kmph
param *.node[*].appl_type "\"GeneralPlatooningApp\""
param *.node[*].appl.leaveManeuver "\"Leader_Leave\""
param *.node[*].protocol_type "\"SimplePlatooningBeaconing\""
param *.node[*].prot.beaconingInterval 0.1s
param *.node[*].prot.priority 2
param *.node[*].prot.packetSize 200
param *.node[*].unicast.packetLossRate 0
param **.traffic_type "\"PlatoonsTrafficManager\""
param **.traffic.platoonInsertTime "1 s"
param **.traffic.platoonInsertSpeed 100kmph
param **.traffic.nCars 5
param **.traffic.platoonSize 5
param **.traffic.nLanes 1
param **.traffic.platooningVType "\"vtypeauto\""
param **.traffic.platoonInsertDistance "5 m"
param **.traffic.platoonInsertHeadway "0 s"
param **.traffic.platoonLeaderHeadway 1.2s

vector 0 Highway.node[0].appl distance ETV
vector 1 Highway.node[0].appl relativeSpeed ETV
vector 2 Highway.node[0].appl nodeId ETV
vector 3 Highway.node[0].appl acceleration ETV
vector 4 Highway.node[0].appl controllerAcceleration ETV
vector 5 Highway.node[0].appl speed ETV
vector 6 Highway.node[0].appl posx ETV
vector 7 Highway.node[0].appl posy ETV
vector 8 Highway.node[1].appl distance ETV
vector 9 Highway.node[1].appl relativeSpeed ETV
vector 10 Highway.node[1].appl nodeId ETV
vector 11 Highway.node[1].appl acceleration ETV
vector 12 Highway.node[1].appl controllerAcceleration ETV
vector 13 Highway.node[1].appl speed ETV
vector 14 Highway.node[1].appl posx ETV
vector 15 Highway.node[1].appl posy ETV
vector 16 Highway.node[2].appl distance ETV
vector 17 Highway.node[2].appl relativeSpeed ETV
vector 18 Highway.node[2].appl nodeId ETV
vector 19 Highway.node[2].appl acceleration ETV
vector 20 Highway.node[2].appl controllerAcceleration ETV
vector 21 Highway.node[2].appl speed ETV
vector 22 Highway.node[2].appl posx ETV
vector 23 Highway.node[2].appl posy ETV
vector 24 Highway.node[3].appl distance ETV
vector 25 Highway.node[3].appl relativeSpeed ETV
vector 26 Highway.node[3].appl nodeId ETV
vector 27 Highway.node[3].appl acceleration ETV
vector 28 Highway.node[3].appl controllerAcceleration ETV
vector 29 Highway.node[3].appl speed ETV
vector 30 Highway.node[3].appl posx ETV
vector 31 Highway.node[3].appl posy ETV
vector 32 Highway.node[4].appl distance ETV
vector 33 Highway.node[4].appl relativeSpeed ETV
vector 34 Highway.node[4].appl nodeId ETV
vector 35 Highway.node[4].appl acceleration ETV
vector 36 Highway.node[4].appl controllerAcceleration ETV
vector 37 Highway.node[4].appl speed ETV
vector 38 Highway.node[4].appl posx ETV
vector 39 Highway.node[4].appl posy ETV
vector 40 Highway.node[4].prot frontDelay ETV
vector 41 Highway.node[4].prot frontDelayId ETV
vector 42 Highway.node[1].prot leaderDelay ETV
vector 43 Highway.node[1].prot leaderDelayId ETV
vector 44 Highway.node[1].prot frontDelay ETV
vector 45 Highway.node[1].prot frontDelayId ETV
vector 46 Highway.node[3].prot leaderDelay ETV
vector 47 Highway.node[3].prot leaderDelayId ETV
vector 48 Highway.node[3].prot frontDelay ETV
vector 49 Highway.node[3].prot frontDelayId ETV
vector 50 Highway.node[2].prot frontDelay ETV
vector 51 Highway.node[2].prot frontDelayId ETV
vector 52 Highway.node[2].prot leaderDelay ETV
vector 53 Highway.node[2].prot leaderDelayId ETV
vector 54 Highway.node[4].prot leaderDelay ETV
vector 55 Highway.node[4].prot leaderDelayId ETV
vector 56 Highway.node[0].prot nodeId ETV
vector 57 Highway.node[0].prot busyTime ETV
vector 58 Highway.node[0].prot collisions ETV
vector 59 Highway.node[1].prot nodeId ETV
vector 60 Highway.node[1].prot busyTime ETV
vector 61 Highway.node[1].prot collisions ETV
vector 62 Highway.node[2].prot nodeId ETV
vector 63 Highway.node[2].prot busyTime ETV
vector 64 Highway.node[2].prot collisions ETV
vector 65 Highway.node[3].prot nodeId ETV
vector 66 Highway.node[3].prot busyTime ETV
vector 67 Highway.node[3].prot collisions ETV
vector 68 Highway.node[4].prot nodeId ETV
vector 69 Highway.node[4].prot busyTime ETV
vector 70 Highway.node[4].prot collisions ETV
vector 71 Highway.node[0].prot leaderDelay ETV
vector 72 Highway.node[0].prot leaderDelayId ETV
4	113	1.11	-0.00218518
4	320	1.21	-0.00213419
4	536	1.31	-0.00205408
4	755	1.41	-0.00195152
4	971	1.51	-0.00183238
4	1178	1.61	-0.00170178
4	1400	1.71	-0.00156412
4	1601	1.81	-0.00142314
4	1820	1.91	-0.00128196
4	2041	2.01	-0.00114315
4	2254	2.11	-0.00100877
4	2470	2.21	-0.000880447
4	2686	2.31	-0.000759381
4	2908	2.41	-0.000646445
4	3118	2.51	-0.000542204
4	3328	2.61	-0.000446965
4	3544	2.71	-0.000360819
4	3760	2.81	-0.000283678
4	3979	2.91	-0.000215307
4	4185	3.01	-0.000155357
4	4398	3.11	-0.000103391
4	4611	3.21	-5.89069e-05
4	4830	3.31	-2.13575e-05
4	5043	3.41	9.82919e-06
4	5256	3.51	3.52368e-05
4	5469	3.61	5.54479e-05
4	5673	3.71	7.10335e-05
4	5874	3.81	8.25451e-05
4	6090	3.91	9.05081e-05
4	6299	4.01	9.54172e-05
4	6509	4.11	9.7733e-05
4	6725	4.21	9.78798e-05
4	6947	4.31	9.62447e-05
4	7154	4.41	9.31771e-05
4	7370	4.51	8.89894e-05
4	7583	4.61	8.39579e-05
4	7799	4.71	7.83245e-05
4	8021	4.81	7.22983e-05
4	8228	4.91	6.6058e-05
4	8434	5.01	5.9754e-05
4	8644	5.11	5.35107e-05
4	8863	5.21	4.74294e-05
4	9067	5.31	4.15898e-05
4	9283	5.41	3.60534e-05
4	9499	5.51	3.0865e-05
4	9709	5.61	2.60551e-05
4	9916	5.71	2.16419e-05
4	10123	5.81	1.76335e-05
4	10339	5.91	1.40289e-05
4	10560	6.01	1.08202e-05
4	10773	6.11	7.99392e-06
4	10992	6.21	5.532e-06
4	11205	6.31	3.41315e-06
4	11418	6.41	1.61374e-06
4	11631	6.51	1.08654e-07
4	11853	6.61	-1.12799e-06
4	12072	6.71	-2.12224e-06
4	12288	6.81	-2.89981e-06
4	12504	6.91	-3.48567e-06
4	12719	7.01	-3.90376e-06
4	12935	7.11	-4.17673e-06
4	13148	7.21	-4.32574e-06
4	13361	7.31	-4.3704e-06
4	13577	7.41	-4.32865e-06
4	13796	7.51	-4.21676e-06
4	14003	7.61	-4.04934e-06
4	14219	7.71	-3.83937e-06
4	14432	7.81	-3.59826e-06
4	14642	7.91	-3.33592e-06
4	14854	8.01	-3.06089e-06
4	15079	8.11	-2.78036e-06
4	15295	8.21	-2.50036e-06
4	15505	8.31	-2.22582e-06
4	15724	8.41	-1.96068e-06
4	15934	8.51	-1.708e-06
4	16141	8.61	-1.47009e-06
4	16351	8.71	-1.24855e-06
4	16558	8.81	-1.04441e-06
4	16768	8.91	-8.58219e-07
4	16986	9.01	-6.90082e-07
4	17199	9.11	-5.39774e-07
4	17403	9.21	-4.06787e-07
4	17625	9.31	-2.90396e-07
4	17838	9.41	-1.89707e-07
4	18054	9.51	-1.03704e-07
4	18261	9.61	-3.12909e-08
4	18468	9.71	2.86736e-08
4	18678	9.81	7.73515e-08
4	18900	9.91	1.15897e-07
4	19112	10.01	1.45439e-07
4	19325	10.11	1.67065e-07
4	19535	10.21	1.81809e-07
4	19757	10.31	1.90644e-07
4	19973	10.41	1.94472e-07
4	20177	10.51	1.94125e-07
4	20384	10.61	1.90358e-07
4	20594	10.71	1.83853e-07
4	20810	10.81	1.75219e-07
4	21029	10.91	1.64994e-07
4	21254	11.01	1.53647e-07
4	21963	11.11	1.41582e-07
4	22182	11.21	1.29146e-07
4	22398	11.31	1.16627e-07
4	22617	11.41	1.04266e-07
4	22833	11.51	9.22547e-08
4	23040	11.61	8.07471e-08
4	23253	11.71	6.98584e-08
4	23469	11.81	5.96732e-08
4	23679	11.91	5.02471e-08
4	23891	12.01	4.16133e-08
4	24107	12.11	3.37845e-08
4	24317	12.21	2.67558e-08
4	24515	12.31	2.05102e-08
4	24737	12.41	1.50187e-08
4	24947	12.51	1.02442e-08
4	25154	12.61	6.14406e-09
4	25376	12.71	2.67022e-09
4	25586	12.81	-2.27374e-10
4	25802	12.91	-2.60059e-09
4	26020	13.01	-4.50058e-09
4	26236	13.11	-5.97851e-09
4	26446	13.21	-7.08376e-09
4	26656	13.31	-7.86322e-09
4	26875	13.41	-8.36167e-09
4	27082	13.51	-8.62066e-09
4	27304	13.61	-8.67857e-09
4	27514	13.71	-8.57057e-09
4	27724	13.81	-8.32792e-09
4	27940	13.91	-7.97975e-09
4	28161	14.01	-7.55094e-09
4	28365	14.11	-7.06351e-09
4	28575	14.21	-6.53699e-09
4	28788	14.31	-5.98774e-09
4	28995	14.41	-5.42997e-09
4	29211	14.51	-4.87468e-09
4	29424	14.61	-4.33182e-09
4	29640	14.71	-3.80886e-09
4	29856	14.81	-3.31148e-09
4	30072	14.91	-2.8443e-09
4	30290	15.01	-2.40981e-09
4	30506	15.11	-2.01013e-09
4	30719	15.21	-1.64633e-09
4	30929	15.31	-1.31806e-09
4	31145	15.41	-1.02531e-09
4	31355	15.51	-7.66676e-10
4	31571	15.61	-5.40723e-10
4	31790	15.71	-3.46034e-10
4	32003	15.81	-1.79767e-10
4	32213	15.91	-4.01457e-11
4	32428	16.01	7.49623e-11
4	32635	16.11	1.68043e-10
4	32848	16.21	2.41585e-10
4	33070	16.31	2.97362e-10
4	33286	16.41	3.37863e-10
4	33496	16.51	3.64864e-10
4	33718	16.61	3.80851e-10
4	33928	16.71	3.86891e-10
4	34141	16.81	3.84759e-10
4	34357	16.91	3.76232e-10
4	34569	17.01	3.62377e-10
4	34779	17.11	3.44613e-10
4	34995	17.21	3.24007e-10
4	35211	17.31	3.00915e-10
4	35427	17.41	2.76756e-10
4	35640	17.51	2.52243e-10
4	35850	17.61	2.27374e-10
4	36066	17.71	2.0286e-10
4	36279	17.81	1.79057e-10
4	36489	17.91	1.56319e-10
4	36716	18.01	1.35003e-10
4	36935	18.11	1.15108e-10
4	37142	18.21	9.66338e-11
4	37364	18.31	7.99361e-11
4	37559	18.41	6.46594e-11
4	37769	18.51	5.08038e-11
4	37982	18.61	3.83693e-11
4	38186	18.71	2.73559e-11
4	38396	18.81	1.77636e-11
4	38612	18.91	9.59233e-12
4	38827	19.01	2.84217e-12
4	39040	19.11	-2.84217e-12
4	39259	19.21	-7.4607e-12
4	39463	19.31	-1.13687e-11
4	39679	19.41	-1.42109e-11
4	39892	19.51	-1.63425e-11
4	40108	19.61	-1.77636e-11
4	40321	19.71	-1.84741e-11
4	40531	19.81	-1.88294e-11
4	40747	19.91	-1.88294e-11
4	40962	20.01	-1.88294e-11
4	41175	20.11	-1.81188e-11
4	41385	20.21	-1.7053e-11
4	41592	20.31	-1.63425e-11
4	41802	20.41	-1.52767e-11
4	42015	20.51	-1.45661e-11
4	42234	20.61	-1.35003e-11
4	42438	20.71	-1.27898e-11
4	42642	20.81	-1.1724e-11
4	42852	20.91	-1.10134e-11
4	43076	21.01	-9.9476e-12
4	43292	21.11	-9.23706e-12
4	43505	21.21	-8.17124e-12
4	43718	21.31	-7.4607e-12
4	43931	21.41	-6.39488e-12
4	44135	21.51	-5.68434e-12
4	44351	21.61	-4.61853e-12
4	44561	21.71	-3.90799e-12
4	44774	21.81	-2.84217e-12
4	44990	21.91	-2.13163e-12
4	45217	22.01	-1.06581e-12
4	45427	22.11	-3.55271e-13
4	45640	22.21	7.10543e-13
4	45853	22.31	1.42109e-12
4	46072	22.41	2.13163e-12
4	46279	22.51	2.84217e-12
4	46486	22.61	3.19744e-12
4	46699	22.71	3.90799e-12
4	46915	22.81	4.26326e-12
4	47131	22.91	4.61853e-12
4	47349	23.01	5.32907e-12
4	47771	23.11	5.68434e-12
4	47984	23.21	5.68434e-12
4	48203	23.31	6.03961e-12
4	48422	23.41	6.39488e-12
4	48635	23.51	6.75016e-12
4	48848	23.61	6.75016e-12
4	49052	23.71	7.10543e-12
4	49265	23.81	7.10543e-12
4	49469	23.91	7.4607e-12
4	49690	24.01	7.4607e-12
4	49894	24.11	7.81597e-12
4	50110	24.21	7.81597e-12
4	50323	24.31	7.81597e-12
4	50542	24.41	7.81597e-12
4	50746	24.51	8.17124e-12
4	50962	24.61	8.17124e-12
4	51169	24.71	8.17124e-12
4	51370	24.81	8.17124e-12
4	51586	24.91	8.17124e-12
4	51804	25.01	8.52651e-12
4	52017	25.11	8.52651e-12
4	52233	25.21	8.52651e-12
4	52440	25.31	8.52651e-12
4	52644	25.41	8.52651e-12
4	52857	25.51	8.52651e-12
4	53064	25.61	8.52651e-12
4	53280	25.71	8.52651e-12
4	53496	25.81	8.52651e-12
4	53706	25.91	8.52651e-12
4	53921	26.01	8.88178e-12
4	54134	26.11	8.88178e-12
4	54350	26.21	8.88178e-12
4	54569	26.31	8.88178e-12
4	54785	26.41	8.88178e-12
4	54989	26.51	8.88178e-12
4	55208	26.61	8.88178e-12
4	55421	26.71	8.88178e-12
4	55634	26.81	8.88178e-12
4	55844	26.91	8.88178e-12
4	56062	27.01	8.88178e-12
4	56278	27.11	8.88178e-12
4	56491	27.21	8.88178e-12
4	56695	27.31	8.88178e-12
4	56914	27.41	8.88178e-12
4	57130	27.51	8.88178e-12
4	57352	27.61	8.88178e-12
4	57568	27.71	8.88178e-12
4	57778	27.81	8.88178e-12
4	57994	27.91	8.88178e-12
4	58224	28.01	8.88178e-12
4	58437	28.11	8.88178e-12
4	58650	28.21	8.88178e-12
4	58857	28.31	8.88178e-12
4	59073	28.41	8.88178e-12
4	59283	28.51	8.88178e-12
4	59496	28.61	8.88178e-12
4	59712	28.71	8.88178e-12
4	59925	28.81	8.88178e-12
4	60141	28.91	8.88178e-12
4	60356	29.01	8.88178e-12
4	60572	29.11	8.88178e-12
4	60776	29.21	8.88178e-12
4	60998	29.31	8.88178e-12
4	61208	29.41	8.88178e-12
4	61427	29.51	8.88178e-12
4	61649	29.61	8.88178e-12
4	61859	29.71	8.88178e-12
4	62075	29.81	8.88178e-12
4	62294	29.91	8.88178e-12
4	62503	30.01	8.88178e-12
4	62722	30.11	8.88178e-12
4	62938	30.21	8.88178e-12
4	63154	30.31	8.88178e-12
4	63619	30.41	8.88178e-12
4	63826	30.51	8.88178e-12
4	64039	30.61	8.88178e-12
4	64255	30.71	8.88178e-12
4	64468	30.81	8.88178e-12
4	64678	30.91	8.88178e-12
4	64896	31.01	8.88178e-12
4	65118	31.11	8.88178e-12
4	65334	31.21	8.88178e-12
4	65547	31.31	8.88178e-12
4	65766	31.41	8.88178e-12
4	65985	31.51	8.88178e-12
4	66201	31.61	8.88178e-12
4	66411	31.71	8.88178e-12
4	66630	31.81	8.88178e-12
4	66849	31.91	8.88178e-12
4	67070	32.01	8.88178e-12
4	67280	32.11	8.88178e-12
4	67493	32.21	8.88178e-12
4	67709	32.31	8.88178e-12
4	67919	32.41	8.88178e-12
4	68132	32.51	8.88178e-12
4	68339	32.61	8.88178e-12
4	68552	32.71	8.88178e-12
4	68771	32.81	8.88178e-12
4	68978	32.91	8.88178e-12
4	69199	33.01	8.88178e-12
4	69418	33.11	8.88178e-12
4	69625	33.21	8.88178e-12
4	69847	33.31	8.88178e-12
4	70063	33.41	8.88178e-12
4	70276	33.51	8.88178e-12
4	70486	33.61	8.88178e-12
4	70696	33.71	8.88178e-12
4	70915	33.81	8.88178e-12
4	71131	33.91	8.88178e-12
4	71349	34.01	8.88178e-12
4	71550	34.11	8.88178e-12
4	71763	34.21	8.88178e-12
4	71985	34.31	8.88178e-12
4	72195	34.41	8.88178e-12
4	72411	34.51	8.88178e-12
4	72627	34.61	8.88178e-12
4	72843	34.71	8.88178e-12
4	73044	34.81	8.88178e-12
4	73263	34.91	8.88178e-12
4	73478	35.01	8.88178e-12
4	73688	35.11	8.88178e-12
4	73904	35.21	8.88178e-12
4	74111	35.31	8.88178e-12
4	74327	35.41	8.88178e-12
4	74543	35.51	8.88178e-12
4	74762	35.61	8.88178e-12
4	74978	35.71	8.88178e-12
4	75185	35.81	8.88178e-12
4	75395	35.91	8.88178e-12
4	75622	36.01	8.88178e-12
4	75838	36.11	8.88178e-12
4	76054	36.21	8.88178e-12
4	76267	36.31	8.88178e-12
4	76483	36.41	8.88178e-12
4	76684	36.51	8.88178e-12
4	76900	36.61	8.88178e-12
4	77110	36.71	8.88178e-12
4	77317	36.81	8.88178e-12
4	77524	36.91	8.88178e-12
4	77751	37.01	8.88178e-12
4	77961	37.11	8.88178e-12
4	78177	37.21	8.88178e-12
4	78387	37.31	8.88178e-12
4	78603	37.41	8.88178e-12
4	78804	37.51	8.88178e-12
4	79014	37.61	8.88178e-12
4	79233	37.71	8.88178e-12
4	79443	37.81	8.88178e-12
4	79665	37.91	8.88178e-12
4	79874	38.01	8.88178e-12
4	80090	38.11	8.88178e-12
4	80300	38.21	8.88178e-12
4	80522	38.31	8.88178e-12
4	80735	38.41	8.88178e-12
4	80957	38.51	8.88178e-12
4	81161	38.61	8.88178e-12
4	81380	38.71	8.88178e-12
4	81596	38.81	8.88178e-12
4	81800	38.91	8.88178e-12
4	82012	39.01	8.88178e-12
4	82231	39.11	8.88178e-12
4	82444	39.21	8.88178e-12
4	82663	39.31	8.88178e-12
4	82867	39.41	8.88178e-12
4	83083	39.51	8.88178e-12
4	83296	39.61	8.88178e-12
4	83506	39.71	8.88178e-12
4	83722	39.81	8.88178e-12
4	83923	39.91	8.88178e-12
4	84150	40.01	8.88178e-12
4	84360	40.11	8.88178e-12
4	84576	40.21	8.88178e-12
4	84786	40.31	8.88178e-12
4	84987	40.41	8.88178e-12
4	85200	40.51	8.88178e-12
4	85413	40.61	8.88178e-12
4	85623	40.71	8.88178e-12
4	85839	40.81	8.88178e-12
4	86049	40.91	8.88178e-12
4	86267	41.01	8.88178e-12
4	86483	41.11	8.88178e-12
4	86687	41.21	8.88178e-12
4	86909	41.31	8.88178e-12
4	87119	41.41	8.88178e-12
4	87338	41.51	8.88178e-12
4	87542	41.61	8.88178e-12
4	87755	41.71	8.88178e-12
4	87968	41.81	8.88178e-12
4	88181	41.91	8.88178e-12
4	88399	42.01	8.88178e-12
4	88618	42.11	8.88178e-12
4	88834	42.21	8.88178e-12
4	89047	42.31	8.88178e-12
4	89260	42.41	8.88178e-12
4	89473	42.51	8.88178e-12
4	89692	42.61	8.88178e-12
4	89902	42.71	8.88178e-12
4	90115	42.81	8.88178e-12
4	90337	42.91	8.88178e-12
4	90552	43.01	8.88178e-12
4	90771	43.11	8.88178e-12
4	90993	43.21	8.88178e-12
4	91206	43.31	8.88178e-12
4	91419	43.41	8.88178e-12
4	91629	43.51	8.88178e-12
4	91845	43.61	8.88178e-12
4	92055	43.71	8.88178e-12
4	92268	43.81	8.88178e-12
4	92484	43.91	8.88178e-12
4	92696	44.01	8.88178e-12
4	92906	44.11	8.88178e-12
4	93110	44.21	8.88178e-12
4	93320	44.31	8.88178e-12
4	93533	44.41	8.88178e-12
4	93749	44.51	8.88178e-12
4	93968	44.61	8.88178e-12
4	94178	44.71	8.88178e-12
4	94394	44.81	8.88178e-12
4	94607	44.91	8.88178e-12
4	95218	45.01	8.88178e-12
4	95437	45.11	8.88178e-12
4	95659	45.21	8.88178e-12
4	95869	45.31	8.88178e-12
4	96088	45.41	8.88178e-12
4	96298	45.51	8.88178e-12
4	96508	45.61	8.88178e-12
4	96718	45.71	8.88178e-12
4	96925	45.81	8.88178e-12
4	97138	45.91	8.88178e-12
4	97350	46.01	8.88178e-12
4	97548	46.11	8.88178e-12
4	97761	46.21	8.88178e-12
4	97977	46.31	8.88178e-12
4	98187	46.41	8.88178e-12
4	98400	46.51	8.88178e-12
4	98613	46.61	8.88178e-12
4	98820	46.71	8.88178e-12
4	99033	46.81	8.88178e-12
4	99243	46.91	8.88178e-12
4	99452	47.01	8.88178e-12
4	99665	47.11	8.88178e-12
4	99875	47.21	8.88178e-12
4	100088	47.31	8.88178e-12
4	100286	47.41	8.88178e-12
4	100496	47.51	8.88178e-12
4	100709	47.61	8.88178e-12
4	100925	47.71	8.88178e-12
4	101141	47.81	8.88178e-12
4	101366	47.91	8.88178e-12
4	101578	48.01	8.88178e-12
4	101788	48.11	8.88178e-12
4	102010	48.21	8.88178e-12
4	102226	48.31	8.88178e-12
4	102436	48.41	8.88178e-12
4	102640	48.51	8.88178e-12
4	102853	48.61	8.88178e-12
4	103069	48.71	8.88178e-12
4	103288	48.81	8.88178e-12
4	103507	48.91	8.88178e-12
4	103722	49.01	8.88178e-12
4	103929	49.11	8.88178e-12
4	104142	49.21	8.88178e-12
4	104355	49.31	8.88178e-12
4	104565	49.41	8.88178e-12
4	104781	49.51	8.88178e-12
4	104988	49.61	8.88178e-12
4	105204	49.71	8.88178e-12
4	105420	49.81	8.88178e-12
4	105633	49.91	8.88178e-12
4	105848	50.01	8.88178e-12
4	106070	50.11	8.88178e-12
4	106283	50.21	8.88178e-12
4	106499	50.31	8.88178e-12
4	106709	50.41	8.88178e-12
4	106931	50.51	8.88178e-12
4	107138	50.61	8.88178e-12
4	107360	50.71	8.88178e-12
4	107570	50.81	8.88178e-12
4	107783	50.91	8.88178e-12
4	108007	51.01	8.88178e-12
4	108223	51.11	8.88178e-12
4	108436	51.21	8.88178e-12
4	108646	51.31	8.88178e-12
4	108859	51.41	8.88178e-12
4	109075	51.51	8.88178e-12
4	109285	51.61	8.88178e-12
4	109504	51.71	8.88178e-12
4	109708	51.81	8.88178e-12
4	109924	51.91	8.88178e-12
4	110145	52.01	8.88178e-12
4	110358	52.11	8.88178e-12
4	110565	52.21	8.88178e-12
4	110784	52.31	8.88178e-12
4	110997	52.41	8.88178e-12
4	111210	52.51	8.88178e-12
4	111426	52.61	8.88178e-12
4	111642	52.71	8.88178e-12
4	111861	52.81	8.88178e-12
4	112074	52.91	8.88178e-12
4	112298	53.01	8.88178e-12
4	112508	53.11	8.88178e-12
4	112718	53.21	8.88178e-12
4	112928	53.31	8.88178e-12
4	113147	53.41	8.88178e-12
4	113357	53.51	8.88178e-12
4	113570	53.61	8.88178e-12
4	113786	53.71	8.88178e-12
4	114005	53.81	8.88178e-12
4	114221	53.91	8.88178e-12
4	114445	54.01	8.88178e-12
4	114664	54.11	8.88178e-12
4	114877	54.21	8.88178e-12
4	115087	54.31	8.88178e-12
4	115294	54.41	8.88178e-12
4	115510	54.51	8.88178e-12
4	115720	54.61	8.88178e-12
4	115930	54.71	8.88178e-12
4	116152	54.81	8.88178e-12
4	116368	54.91	8.88178e-12
4	116595	55.01	8.88178e-12
4	116805	55.11	8.88178e-12
4	117012	55.21	8.88178e-12
4	117234	55.31	8.88178e-12
4	117447	55.41	8.88178e-12
4	117663	55.51	8.88178e-12
4	117876	55.61	8.88178e-12
4	118080	55.71	8.88178e-12
4	118302	55.81	8.88178e-12
4	118515	55.91	8.88178e-12
4	118730	56.01	8.88178e-12
4	118949	56.11	8.88178e-12
4	119162	56.21	8.88178e-12
4	119369	56.31	8.88178e-12
4	119567	56.41	8.88178e-12
4	119780	56.51	8.88178e-12
4	119996	56.61	8.88178e-12
4	120200	56.71	8.88178e-12
4	120422	56.81	8.88178e-12
4	120632	56.91	8.88178e-12
4	120982	57.01	8.88178e-12
4	121207	57.11	8.88178e-12
4	121411	57.21	8.88178e-12
4	121627	57.31	8.88178e-12
4	121843	57.41	8.88178e-12
4	122053	57.51	8.88178e-12
4	122263	57.61	8.88178e-12
4	122476	57.71	8.88178e-12
4	122692	57.81	8.88178e-12
4	122911	57.91	8.88178e-12
4	123129	58.01	8.88178e-12
4	123333	58.11	8.88178e-12
4	123549	58.21	8.88178e-12
4	123768	58.31	8.88178e-12
4	123978	58.41	8.88178e-12
4	124197	58.51	8.88178e-12
4	124407	58.61	8.88178e-12
4	124620	58.71	8.88178e-12
4	124839	58.81	8.88178e-12
4	125055	58.91	8.88178e-12
4	125270	59.01	8.88178e-12
4	125492	59.11	8.88178e-12
4	125714	59.21	8.88178e-12
4	125933	59.31	8.88178e-12
4	126143	59.41	8.88178e-12
4	126353	59.51	8.88178e-12
4	126563	59.61	8.88178e-12
4	126779	59.71	8.88178e-12
4	126992	59.81	8.88178e-12
4	127199	59.91	8.88178e-12
4	127420	60.01	8.88178e-12
4	127636	60.11	8.88178e-12
4	127843	60.21	8.88178e-12
4	128065	60.31	8.88178e-12
4	128278	60.41	8.88178e-12
4	128494	60.51	8.88178e-12
4	128701	60.61	8.88178e-12
4	128911	60.71	8.88178e-12
4	129118	60.81	8.88178e-12
4	129325	60.91	8.88178e-12
4	129537	61.01	8.88178e-12
4	129756	61.11	8.88178e-12
4	129972	61.21	8.88178e-12
4	130182	61.31	8.88178e-12
4	130401	61.41	8.88178e-12
4	130614	61.51	8.88178e-12
4	130827	61.61	8.88178e-12
4	131031	61.71	8.88178e-12
4	131241	61.81	8.88178e-12
4	131457	61.91	8.88178e-12
4	131681	62.01	8.88178e-12
4	131891	62.11	8.88178e-12
4	132107	62.21	8.88178e-12
4	132323	62.31	8.88178e-12
4	132533	62.41	8.88178e-12
4	132740	62.51	8.88178e-12
4	132947	62.61	8.88178e-12
4	133160	62.71	8.88178e-12
4	133376	62.81	8.88178e-12
4	133592	62.91	8.88178e-12
4	133819	63.01	8.88178e-12
4	134029	63.11	8.88178e-12
4	134242	63.21	8.88178e-12
4	134449	63.31	8.88178e-12
4	134662	63.41	8.88178e-12
4	134872	63.51	8.88178e-12
4	135094	63.61	8.88178e-12
4	135304	63.71	8.88178e-12
4	135526	63.81	8.88178e-12
4	135742	63.91	8.88178e-12
4	135954	64.01	8.88178e-12
4	136164	64.11	8.88178e-12
4	136377	64.21	8.88178e-12
4	136593	64.31	8.88178e-12
4	136809	64.41	8.88178e-12
4	137025	64.51	8.88178e-12
4	137232	64.61	8.88178e-12
4	137451	64.71	8.88178e-12
4	137661	64.81	8.88178e-12
4	137874	64.91	8.88178e-12
4	138098	65.01	8.88178e-12
4	138314	65.11	8.88178e-12
4	138527	65.21	8.88178e-12
4	138749	65.31	8.88178e-12
4	138962	65.41	8.88178e-12
4	139181	65.51	8.88178e-12
4	139394	65.61	8.88178e-12
4	139613	65.71	8.88178e-12
4	139829	65.81	8.88178e-12
4	140039	65.91	8.88178e-12
4	140251	66.01	8.88178e-12
4	140467	66.11	8.88178e-12
4	140680	66.21	8.88178e-12
4	140899	66.31	8.88178e-12
4	141712	66.41	1.5
4	141925	66.51	1.5
4	142135	66.61	1.5
4	142348	66.71	1.5
4	142552	66.81	1.5
4	142765	66.91	1.5
4	142986	67.01	1.5
4	143205	67.11	1.5
4	143424	67.21	1.5
4	143628	67.31	1.5
4	143838	67.41	1.5
4	144054	67.51	1.5
4	144264	67.61	1.5
4	144468	67.71	1.5
4	144675	67.81	1.5
4	144888	67.91	1.5
4	145103	68.01	1.5
4	145316	68.11	1.5
4	145538	68.21	1.5
4	145757	68.31	1.5
4	145961	68.41	1.5
4	146174	68.51	1.5
4	146393	68.61	1.5
4	146615	68.71	1.5
4	146825	68.81	1.5
4	147032	68.91	1.5
4	147259	69.01	1.5
4	147472	69.11	1.5
4	147685	69.21	1.5
4	147904	69.31	1.5
4	148117	69.41	1.5
4	148327	69.51	1.5
4	148543	69.61	1.5
4	148759	69.71	1.5
4	148972	69.81	1.5
4	149185	69.91	1.5
4	149403	70.01	1.5
4	149619	70.11	1.5
4	149838	70.21	1.5
4	150057	70.31	1.5
4	150270	70.41	1.5
4	150486	70.51	1.5
4	150696	70.61	1.5
4	150909	70.71	1.5
4	151125	70.81	1.5
4	151329	70.91	1.5
4	151547	71.01	1.5
4	151751	71.11	1.5
4	151964	71.21	1.5
4	152186	71.31	1.5
4	152384	71.41	1.5
4	152597	71.51	1.43331
4	152813	71.61	1.28466
4	153026	71.71	1.13968
4	153239	71.81	1.0003
4	153452	71.91	0.868016
4	153679	72.01	0.743931
4	153889	72.11	0.628795
4	154096	72.21	0.523065
4	154321	72.31	0.426948
4	154540	72.41	0.340441
4	154753	72.51	0.263369
4	154963	72.61	0.19542
4	155170	72.71	0.136173
4	155389	72.81	0.0851267
4	155599	72.91	0.0417245
4	155823	73.01	0.00537127
4	156036	73.11	-0.0245474
4	156249	73.21	-0.0486509
4	156468	73.31	-0.0675515
4	156678	73.41	-0.081845
4	156891	73.51	-0.0921027
4	157107	73.61	-0.0988656
4	157323	73.71	-0.10264
4	157542	73.81	-0.103896
4	157749	73.91	-0.103063
4	157973	74.01	-0.10053
4	158195	74.11	-0.0966501
4	158399	74.21	-0.0917333
4	158618	74.31	-0.0860545
4	158831	74.41	-0.0798525
4	159044	74.51	-0.0733324
4	159248	74.61	-0.0666684
4	159467	74.71	-0.0600059
4	159671	74.81	-0.053464
4	159893	74.91	-0.0471385
4	160120	75.01	-0.0411039
4	160339	75.11	-0.0354162
4	160555	75.21	-0.030115
4	160774	75.31	-0.0252261
4	160987	75.41	-0.0207631
4	161203	75.51	-0.0167294
4	161416	75.61	-0.0131203
4	161635	75.71	-0.00992431
4	161848	75.81	-0.00712446
4	162064	75.91	-0.00469983
4	162285	76.01	-0.00262649
4	162504	76.11	-0.000878516
4	162729	76.21	0.000571184
4	162945	76.31	0.0017502
4	163152	76.41	0.00268601
4	163365	76.51	0.00340553
4	163575	76.61	0.0039347
4	163776	76.71	0.00429823
4	163992	76.81	0.00451936
4	164202	76.91	0.00461971
4	164414	77.01	0.00461917
4	164618	77.11	0.00453588
4	164828	77.21	0.0043862
4	165050	77.31	0.00418473
4	165266	77.41	0.00394441
4	165473	77.51	0.00367651
4	165686	77.61	0.0033908
4	165887	77.71	0.0030956
4	166094	77.81	0.00279791
4	166304	77.91	0.00250352
4	166522	78.01	0.00221711
4	166738	78.11	0.0019424
4	166945	78.21	0.00168219
4	167164	78.31	0.00143856
4	167377	78.41	0.0012129
4	167584	78.51	0.00100603
4	167806	78.61	0.000818271
4	168019	78.71	0.00064957
4	168241	78.81	0.000499526
4	168457	78.91	0.000367479
4	168663	79.01	0.000252563
4	168876	79.11	0.000153762
4	169089	79.21	6.99525e-05
4	169305	79.31	-5.48617e-08
4	169521	79.41	-5.74843e-05
4	169740	79.51	-0.000103565
4	169953	79.61	-0.00013951
4	170157	79.71	-0.000166496
4	170370	79.81	-0.000185647
4	170589	79.91	-0.000198027
4	170804	80.01	-0.000204632
4	171020	80.11	-0.00020638
4	171242	80.21	-0.000204113
4	171458	80.31	-0.000198591
4	171674	80.41	-0.0001905
4	171890	80.51	-0.000180446
4	172097	80.61	-0.000168961
4	172316	80.71	-0.000156509
4	172523	80.81	-0.000143487
4	172733	80.91	-0.000130231
4	172945	81.01	-0.000117021
4	173164	81.11	-0.000104085
4	173374	81.21	-9.16059e-05
4	173587	81.31	-7.97258e-05
4	173803	81.41	-6.85501e-05
4	174019	81.51	-5.81526e-05
4	174232	81.61	-4.858e-05
4	174442	81.71	-3.98558e-05
4	174652	81.81	-3.19841e-05
4	174862	81.91	-2.49529e-05
4	175080	82.01	-1.87373e-05
4	175293	82.11	-1.33023e-05
4	175509	82.21	-8.60505e-06
4	175716	82.31	-4.59737e-06
4	175929	82.41	-1.22723e-06
4	176151	82.51	1.55948e-06
4	176358	82.61	3.81758e-06
4	176571	82.71	5.60154e-06
4	176787	82.81	6.96454e-06
4	177000	82.91	7.95775e-06
4	177218	83.01	8.62981e-06
4	177431	83.11	9.02635e-06
4	177638	83.21	9.18975e-06
4	177854	83.31	9.15897e-06
4	178055	83.41	8.96945e-06
4	178268	83.51	8.6531e-06
4	178478	83.61	8.23838e-06
4	178694	83.71	7.7504e-06
4	178898	83.81	7.21108e-06
4	179111	83.91	6.63932e-06
4	179326	84.01	6.05119e-06
4	179539	84.11	5.46018e-06
4	179758	84.21	4.87742e-06
4	179971	84.31	4.31187e-06
4	180184	84.41	3.77058e-06
4	180400	84.51	3.25891e-06
4	180610	84.61	2.78071e-06
4	180820	84.71	2.33855e-06
4	181036	84.81	1.93388e-06
4	181252	84.91	1.56722e-06
4	181473	85.01	1.23832e-06
4	181683	85.11	9.46301e-07
4	181896	85.21	6.89769e-07
4	182112	85.31	4.66952e-07
4	182331	85.41	2.7579e-07
4	182541	85.51	1.14024e-07
4	182760	85.61	-2.07265e-08
4	182982	85.71	-1.30897e-07
4	183195	85.81	-2.18927e-07
4	183414	85.91	-2.87216e-07
4	183620	86.01	-3.38085e-07
4	183836	86.11	-3.73751e-07
4	184037	86.21	-3.96307e-07
4	184250	86.31	-4.07702e-07
4	184466	86.41	-4.09737e-07
4	184682	86.51	-4.04058e-07
4	184898	86.61	-3.92152e-07
4	185117	86.71	-3.75351e-07
4	185336	86.81	-3.54837e-07
4	185534	86.91	-3.31644e-07
4	185755	87.01	-3.06668e-07
4	185971	87.11	-2.8068e-07
4	186184	87.21	-2.54326e-07
4	186400	87.31	-2.28145e-07
4	186610	87.41	-2.02575e-07
4	186817	87.51	-1.77966e-07
4	187033	87.61	-1.54586e-07
4	187240	87.71	-1.32633e-07
4	187444	87.81	-1.12246e-07
4	187660	87.91	-9.35074e-08
4	187881	88.01	-7.64587e-08
4	188082	88.11	-6.1101e-08
4	188289	88.21	-4.74067e-08
4	188490	88.31	-3.53225e-08
4	188709	88.41	-2.47752e-08
4	188928	88.51	-1.56788e-08
4	189138	88.61	-7.93463e-09
4	189351	88.71	-1.44027e-09
4	189561	88.81	3.91367e-09
4	189771	88.91	8.23519e-09
4	189980	89.01	1.1633e-08
4	190193	89.11	1.42116e-08
4	190406	89.21	1.60725e-08
4	190619	89.31	1.73102e-08
4	190835	89.41	1.80158e-08
4	191051	89.51	1.82709e-08
4	191264	89.61	1.81529e-08
4	191474	89.71	1.77302e-08
4	191696	89.81	1.70651e-08
4	191903	89.91	1.62139e-08
3	113	1.11	-0.000358191
3	320	1.21	-0.000681704
3	536	1.31	-0.00093487
3	755	1.41	-0.00112579
3	971	1.51	-0.00126221
3	1178	1.61	-0.00135149
3	1400	1.71	-0.00140049
3	1601	1.81	-0.00141557
3	1820	1.91	-0.00140255
3	2041	2.01	-0.00136671
3	2254	2.11	-0.0013128
3	2470	2.21	-0.00124502
3	2686	2.31	-0.0011671
3	2908	2.41	-0.00108223
3	3118	2.51	-0.000993208
3	3328	2.61	-0.000902362
3	3544	2.71	-0.000811651
3	3760	2.81	-0.000722679
3	3979	2.91	-0.000636729
3	4185	3.01	-0.0005548
3	4398	3.11	-0.000477639
3	4611	3.21	-0.000405773
3	4830	3.31	-0.00033954
3	5043	3.41	-0.000279116
3	5256	3.51	-0.000224541
3	5469	3.61	-0.000175743
3	5673	3.71	-0.00013256
3	5874	3.81	-9.47571e-05
3	6090	3.91	-6.2046e-05
3	6299	4.01	-3.40986e-05
3	6509	4.11	-1.05605e-05
3	6725	4.21	8.93844e-06
3	6947	4.31	2.4774e-05
3	7154	4.41	3.73203e-05
3	7370	4.51	4.69433e-05
3	7583	4.61	5.39956e-05
3	7799	4.71	5.88124e-05
3	8021	4.81	6.1709e-05
3	8228	4.91	6.29785e-05
3	8434	5.01	6.28903e-05
3	8644	5.11	6.169e-05
3	8863	5.21	5.95988e-05
3	9067	5.31	5.68144e-05
3	9283	5.41	5.35112e-05
3	9499	5.51	4.98416e-05
3	9709	5.61	4.59373e-05
3	9916	5.71	4.19105e-05
3	10123	5.81	3.78555e-05
3	10339	5.91	3.38499e-05
3	10560	6.01	2.99569e-05
3	10773	6.11	2.62259e-05
3	10992	6.21	2.26948e-05
3	11205	6.31	1.93911e-05
3	11418	6.41	1.6333e-05
3	11631	6.51	1.35314e-05
3	11853	6.61	1.09904e-05
3	12072	6.71	8.70882e-06
3	12288	6.81	6.6809e-06
3	12504	6.91	4.89747e-06
3	12719	7.01	3.3466e-06
3	12935	7.11	2.01432e-06
3	13148	7.21	8.85256e-07
3	13361	7.31	-5.68459e-08
3	13577	7.41	-8.28678e-07
3	13796	7.51	-1.44699e-06
3	14003	7.61	-1.92826e-06
3	14219	7.71	-2.28849e-06
3	14432	7.81	-2.54296e-06
3	14642	7.91	-2.7061e-06
3	14854	8.01	-2.79139e-06
3	15079	8.11	-2.8113e-06
3	15295	8.21	-2.77721e-06
3	15505	8.31	-2.69943e-06
3	15724	8.41	-2.58721e-06
3	15934	8.51	-2.44874e-06
3	16141	8.61	-2.29123e-06
3	16351	8.71	-2.12092e-06
3	16558	8.81	-1.94317e-06
3	16768	8.91	-1.7625e-06
3	16986	9.01	-1.58267e-06
3	17199	9.11	-1.40677e-06
3	17403	9.21	-1.23723e-06
3	17625	9.31	-1.07596e-06
3	17838	9.41	-9.24364e-07
3	18054	9.51	-7.83424e-07
3	18261	9.61	-6.53753e-07
3	18468	9.71	-5.35652e-07
3	18678	9.81	-4.2916e-07
3	18900	9.91	-3.34103e-07
3	19112	10.01	-2.5013e-07
3	19325	10.11	-1.76757e-07
3	19535	10.21	-1.13395e-07
3	19757	10.31	-5.93825e-08
3	19973	10.41	-1.40084e-08
3	20177	10.51	2.34657e-08
3	20384	10.61	5.3787e-08
3	20594	10.71	7.76954e-08
3	20810	10.81	9.59155e-08
3	21029	10.91	1.09142e-07
3	21254	11.01	1.18035e-07
3	21963	11.11	1.23212e-07
3	22182	11.21	1.2525e-07
3	22398	11.31	1.24675e-07
3	22617	11.41	1.21968e-07
3	22833	11.51	1.17559e-07
3	23040	11.61	1.11834e-07
3	23253	11.71	1.05132e-07
3	23469	11.81	9.77476e-08
3	23679	11.91	8.99373e-08
3	23891	12.01	8.19171e-08
3	24107	12.11	7.38677e-08
3	24317	12.21	6.59401e-08
3	24515	12.31	5.82538e-08
3	24737	12.41	5.09036e-08
3	24947	12.51	4.39606e-08
3	25154	12.61	3.74765e-08
3	25376	12.71	3.14852e-08
3	25586	12.81	2.60055e-08
3	25802	12.91	2.10438e-08
3	26020	13.01	1.65958e-08
3	26236	13.11	1.26498e-08
3	26446	13.21	9.18554e-09
3	26656	13.31	6.17888e-09
3	26875	13.41	3.60174e-09
3	27082	13.51	1.42322e-09
3	27304	13.61	-3.90088e-10
3	27514	13.71	-1.8705e-09
3	27724	13.81	-3.05107e-09
3	27940	13.91	-3.96518e-09
3	28161	14.01	-4.64375e-09
3	28365	14.11	-5.11768e-09
3	28575	14.21	-5.41434e-09
3	28788	14.31	-5.56071e-09
3	28995	14.41	-5.58096e-09
3	29211	14.51	-5.49747e-09
3	29424	14.61	-5.33085e-09
3	29640	14.71	-5.09743e-09
3	29856	14.81	-4.81464e-09
3	30072	14.91	-4.49667e-09
3	30290	15.01	-4.15525e-09
3	30506	15.11	-3.80034e-09
3	30719	15.21	-3.44151e-09
3	30929	15.31	-3.08518e-09
3	31145	15.41	-2.73772e-09
3	31355	15.51	-2.40306e-09
3	31571	15.61	-2.08544e-09
3	31790	15.71	-1.78773e-09
3	32003	15.81	-1.51132e-09
3	32213	15.91	-1.25766e-09
3	32428	16.01	-1.02673e-09
3	32635	16.11	-8.18901e-10
3	32848	16.21	-6.33804e-10
3	33070	16.31	-4.70735e-10
3	33286	16.41	-3.28271e-10
3	33496	16.51	-2.05702e-10
3	33718	16.61	-1.00897e-10
3	33928	16.71	-1.35003e-11
3	34141	16.81	5.82645e-11
3	34357	16.91	1.16174e-10
3	34569	17.01	1.61648e-10
3	34779	17.11	1.95755e-10
3	34995	17.21	2.20624e-10
3	35211	17.31	2.36966e-10
3	35427	17.41	2.45848e-10
3	35640	17.51	2.4869e-10
3	35850	17.61	2.46914e-10
3	36066	17.71	2.40874e-10
3	36279	17.81	2.31282e-10
3	36489	17.91	2.19913e-10
3	36716	18.01	2.05702e-10
3	36935	18.11	1.91491e-10
3	37142	18.21	1.7657e-10
3	37364	18.31	1.59872e-10
3	37559	18.41	1.44595e-10
3	37769	18.51	1.30385e-10
3	37982	18.61	1.16174e-10
3	38186	18.71	1.01963e-10
3	38396	18.81	8.7752e-11
3	38612	18.91	7.35412e-11
3	38827	19.01	6.21725e-11
3	39040	19.11	5.15143e-11
3	39259	19.21	4.08562e-11
3	39463	19.31	3.16192e-11
3	39679	19.41	2.45137e-11
3	39892	19.51	1.74083e-11
3	40108	19.61	1.03029e-11
3	40321	19.71	6.03961e-12
3	40531	19.81	2.4869e-12
3	40747	19.91	-1.06581e-12
3	40962	20.01	-4.61853e-12
3	41175	20.11	-8.17124e-12
3	41385	20.21	-8.88178e-12
3	41592	20.31	-8.88178e-12
3	41802	20.41	-8.88178e-12
3	42015	20.51	-8.88178e-12
3	42234	20.61	-8.88178e-12
3	42438	20.71	-8.88178e-12
3	42642	20.81	-8.88178e-12
3	42852	20.91	-8.88178e-12
3	43076	21.01	-8.88178e-12
3	43292	21.11	-8.88178e-12
3	43505	21.21	-8.88178e-12
3	43718	21.31	-8.88178e-12
3	43931	21.41	-8.88178e-12
3	44135	21.51	-8.88178e-12
3	44351	21.61	-8.88178e-12
3	44561	21.71	-8.88178e-12
3	44774	21.81	-8.88178e-12
3	44990	21.91	-8.88178e-12
3	45217	22.01	-8.88178e-12
3	45427	22.11	-8.88178e-12
3	45640	22.21	-8.17124e-12
3	45853	22.31	-7.4607e-12
3	46072	22.41	-6.75016e-12
3	46279	22.51	-6.03961e-12
3	46486	22.61	-5.68434e-12
3	46699	22.71	-4.9738e-12
3	46915	22.81	-4.61853e-12
3	47131	22.91	-4.26326e-12
3	47349	23.01	-3.55271e-12
3	47771	23.11	-3.19744e-12
3	47984	23.21	-3.19744e-12
3	48203	23.31	-2.84217e-12
3	48422	23.41	-2.4869e-12
3	48635	23.51	-2.13163e-12
3	48848	23.61	-2.13163e-12
3	49052	23.71	-1.77636e-12
3	49265	23.81	-1.77636e-12
3	49469	23.91	-1.42109e-12
3	49690	24.01	-1.42109e-12
3	49894	24.11	-1.06581e-12
3	50110	24.21	-1.06581e-12
3	50323	24.31	-1.06581e-12
3	50542	24.41	-1.06581e-12
3	50746	24.51	-7.10543e-13
3	50962	24.61	-7.10543e-13
3	51169	24.71	-7.10543e-13
3	51370	24.81	-7.10543e-13
3	51586	24.91	-7.10543e-13
3	51804	25.01	-3.55271e-13
3	52017	25.11	-3.55271e-13
3	52233	25.21	-3.55271e-13
3	52440	25.31	-3.55271e-13
3	52644	25.41	-3.55271e-13
3	52857	25.51	-3.55271e-13
3	53064	25.61	-3.55271e-13
3	53280	25.71	-3.55271e-13
3	53496	25.81	-3.55271e-13
3	53706	25.91	-3.55271e-13
3	53921	26.01	0
3	54134	26.11	0
3	54350	26.21	0
3	54569	26.31	0
3	54785	26.41	0
3	54989	26.51	0
3	55208	26.61	0
3	55421	26.71	0
3	55634	26.81	0
3	55844	26.91	0
3	56062	27.01	0
3	56278	27.11	0
3	56491	27.21	0
3	56695	27.31	0
3	56914	27.41	0
3	57130	27.51	0
3	57352	27.61	0
3	57568	27.71	0
3	57778	27.81	0
3	57994	27.91	0
3	58224	28.01	0
3	58437	28.11	0
3	58650	28.21	0
3	58857	28.31	0
3	59073	28.41	0
3	59283	28.51	0
3	59496	28.61	0
3	59712	28.71	0
3	59925	28.81	0
3	60141	28.91	0
3	60356	29.01	0
3	60572	29.11	0
3	60776	29.21	0
3	60998	29.31	0
3	61208	29.41	0
3	61427	29.51	0
3	61649	29.61	0
3	61859	29.71	0
3	62075	29.81	0
3	62294	29.91	0
3	62503	30.01	0
3	62722	30.11	0
3	62938	30.21	0
3	63154	30.31	0
3	63619	30.41	0
3	63826	30.51	0
3	64039	30.61	0
3	64255	30.71	0
3	64468	30.81	0
3	64678	30.91	0
3	64896	31.01	0
3	65118	31.11	0
3	65334	31.21	0
3	65547	31.31	0
3	65766	31.41	0
3	65985	31.51	0
3	66201	31.61	0
3	66411	31.71	0
3	66630	31.81	0
3	66849	31.91	0
3	67070	32.01	0
3	67280	32.11	0
3	67493	32.21	0
3	67709	32.31	0
3	67919	32.41	0
3	68132	32.51	0
3	68339	32.61	0
3	68552	32.71	0
3	68771	32.81	0
3	68978	32.91	0
3	69199	33.01	0
3	69418	33.11	0
3	69625	33.21	0
3	69847	33.31	0
3	70063	33.41	0
3	70276	33.51	0
3	70486	33.61	0
3	70696	33.71	0
3	70915	33.81	0
3	71131	33.91	0
3	71349	34.01	0
3	71550	34.11	0
3	71763	34.21	0
3	71985	34.31	0
3	72195	34.41	0
3	72411	34.51	0
3	72627	34.61	0
3	72843	34.71	0
3	73044	34.81	0
3	73263	34.91	0
3	73478	35.01	0
3	73688	35.11	0
3	73904	35.21	0
3	74111	35.31	0
3	74327	35.41	0
3	74543	35.51	0
3	74762	35.61	0
3	74978	35.71	0
3	75185	35.81	0
3	75395	35.91	0
3	75622	36.01	0
3	75838	36.11	0
3	76054	36.21	0
3	76267	36.31	0
3	76483	36.41	0
3	76684	36.51	0
3	76900	36.61	0
3	77110	36.71	0
3	77317	36.81	0
3	77524	36.91	0
3	77751	37.01	0
3	77961	37.11	0
3	78177	37.21	0
3	78387	37.31	0
3	78603	37.41	0
3	78804	37.51	0
3	79014	37.61	0
3	79233	37.71	0
3	79443	37.81	0
3	79665	37.91	0
3	79874	38.01	0
3	80090	38.11	0
3	80300	38.21	0
3	80522	38.31	0
3	80735	38.41	0
3	80957	38.51	0
3	81161	38.61	0
3	81380	38.71	0
3	81596	38.81	0
3	81800	38.91	0
3	82012	39.01	0
3	82231	39.11	0
3	82444	39.21	0
3	82663	39.31	0
3	82867	39.41	0
3	83083	39.51	0
3	83296	39.61	0
3	83506	39.71	0
3	83722	39.81	0
3	83923	39.91	0
3	84150	40.01	0
3	84360	40.11	0
3	84576	40.21	0
3	84786	40.31	0
3	84987	40.41	0
3	85200	40.51	0
3	85413	40.61	0
3	85623	40.71	0
3	85839	40.81	0
3	86049	40.91	0
3	86267	41.01	0
3	86483	41.11	0
3	86687	41.21	0
3	86909	41.31	0
3	87119	41.41	0
3	87338	41.51	0
3	87542	41.61	0
3	87755	41.71	0
3	87968	41.81	0
3	88181	41.91	0
3	88399	42.01	0
3	88618	42.11	0
3	88834	42.21	0
3	89047	42.31	0
3	89260	42.41	0
3	89473	42.51	0
3	89692	42.61	0
3	89902	42.71	0
3	90115	42.81	0
3	90337	42.91	0
3	90552	43.01	0
3	90771	43.11	0
3	90993	43.21	0
3	91206	43.31	0
3	91419	43.41	0
3	91629	43.51	0
3	91845	43.61	0
3	92055	43.71	0
3	92268	43.81	0
3	92484	43.91	0
3	92696	44.01	0
3	92906	44.11	0
3	93110	44.21	0
3	93320	44.31	0
3	93533	44.41	0
3	93749	44.51	0
3	93968	44.61	0
3	94178	44.71	0
3	94394	44.81	0
3	94607	44.91	0
3	95218	45.01	0
3	95437	45.11	0
3	95659	45.21	0
3	95869	45.31	0
3	96088	45.41	0
3	96298	45.51	0
3	96508	45.61	0
3	96718	45.71	0
3	96925	45.81	0
3	97138	45.91	0
3	97350	46.01	0
3	97548	46.11	0
3	97761	46.21	0
3	97977	46.31	0
3	98187	46.41	0
3	98400	46.51	0
3	98613	46.61	0
3	98820	46.71	0
3	99033	46.81	0
3	99243	46.91	0
3	99452	47.01	0
3	99665	47.11	0
3	99875	47.21	0
3	100088	47.31	0
3	100286	47.41	0
3	100496	47.51	0
3	100709	47.61	0
3	100925	47.71	0
3	101141	47.81	0
3	101366	47.91	0
3	101578	48.01	0
3	101788	48.11	0
3	102010	48.21	0
3	102226	48.31	0
3	102436	48.41	0
3	102640	48.51	0
3	102853	48.61	0
3	103069	48.71	0
3	103288	48.81	0
3	103507	48.91	0
3	103722	49.01	0
3	103929	49.11	0
3	104142	49.21	0
3	104355	49.31	0
3	104565	49.41	0
3	104781	49.51	0
3	104988	49.61	0
3	105204	49.71	0
3	105420	49.81	0
3	105633	49.91	0
3	105848	50.01	0
3	106070	50.11	0
3	106283	50.21	0
3	106499	50.31	0
3	106709	50.41	0
3	106931	50.51	0
3	107138	50.61	0
3	107360	50.71	0
3	107570	50.81	0
3	107783	50.91	0
3	108007	51.01	0
3	108223	51.11	0
3	108436	51.21	0
3	108646	51.31	0
3	108859	51.41	0
3	109075	51.51	0
3	109285	51.61	0
3	109504	51.71	0
3	109708	51.81	0
3	109924	51.91	0
3	110145	52.01	0
3	110358	52.11	0
3	110565	52.21	0
3	110784	52.31	0
3	110997	52.41	0
3	111210	52.51	0
3	111426	52.61	0
3	111642	52.71	0
3	111861	52.81	0
3	112074	52.91	0
3	112298	53.01	0
3	112508	53.11	0
3	112718	53.21	0
3	112928	53.31	0
3	113147	53.41	0
3	113357	53.51	0
3	113570	53.61	0
3	113786	53.71	0
3	114005	53.81	0
3	114221	53.91	0
3	114445	54.01	0
3	114664	54.11	0
3	114877	54.21	0
3	115087	54.31	0
3	115294	54.41	0
3	115510	54.51	0
3	115720	54.61	0
3	115930	54.71	0
3	116152	54.81	0
3	116368	54.91	0
3	116595	55.01	0
3	116805	55.11	0
3	117012	55.21	0
3	117234	55.31	0
3	117447	55.41	0
3	117663	55.51	0
3	117876	55.61	0
3	118080	55.71	0
3	118302	55.81	0
3	118515	55.91	0
3	118730	56.01	0
3	118949	56.11	0
3	119162	56.21	0
3	119369	56.31	0
3	119567	56.41	0
3	119780	56.51	0
3	119996	56.61	0
3	120200	56.71	0
3	120422	56.81	0
3	120632	56.91	0
3	120982	57.01	0
3	121207	57.11	0
3	121411	57.21	0
3	121627	57.31	0
3	121843	57.41	0
3	122053	57.51	0
3	122263	57.61	0
3	122476	57.71	0
3	122692	57.81	0
3	122911	57.91	0
3	123129	58.01	0
3	123333	58.11	0
3	123549	58.21	0
3	123768	58.31	0
3	123978	58.41	0
3	124197	58.51	0
3	124407	58.61	0
3	124620	58.71	0
3	124839	58.81	0
3	125055	58.91	0
3	125270	59.01	0
3	125492	59.11	0
3	125714	59.21	0
3	125933	59.31	0
3	126143	59.41	0
3	126353	59.51	0
3	126563	59.61	0
3	126779	59.71	0
3	126992	59.81	0
3	127199	59.91	0
3	127420	60.01	0
3	127636	60.11	0
3	127843	60.21	0
3	128065	60.31	0
3	128278	60.41	0
3	128494	60.51	0
3	128701	60.61	0
3	128911	60.71	0
3	129118	60.81	0
3	129325	60.91	0
3	129537	61.01	0
3	129756	61.11	0
3	129972	61.21	0
3	130182	61.31	0
3	130401	61.41	0
3	130614	61.51	0
3	130827	61.61	0
3	131031	61.71	0
3	131241	61.81	0
3	131457	61.91	0
3	131681	62.01	0
3	131891	62.11	0
3	132107	62.21	0
3	132323	62.31	0
3	132533	62.41	0
3	132740	62.51	0
3	132947	62.61	0
3	133160	62.71	0
3	133376	62.81	0
3	133592	62.91	0
3	133819	63.01	0
3	134029	63.11	0
3	134242	63.21	0
3	134449	63.31	0
3	134662	63.41	0
3	134872	63.51	0
3	135094	63.61	0
3	135304	63.71	0
3	135526	63.81	0
3	135742	63.91	0
3	135954	64.01	0
3	136164	64.11	0
3	136377	64.21	0
3	136593	64.31	0
3	136809	64.41	0
3	137025	64.51	0
3	137232	64.61	0
3	137451	64.71	0
3	137661	64.81	0
3	137874	64.91	0
3	138098	65.01	0
3	138314	65.11	0
3	138527	65.21	0
3	138749	65.31	0
3	138962	65.41	0
3	139181	65.51	0
3	139394	65.61	0
3	139613	65.71	0
3	139829	65.81	0
3	140039	65.91	0
3	140251	66.01	0
3	140467	66.11	0
3	140680	66.21	0
3	140899	66.31	0
3	141712	66.41	0.0294118
3	141925	66.51	0.293605
3	142135	66.61	0.510336
3	142348	66.71	0.688131
3	142552	66.81	0.833985
3	142765	66.91	0.953635
3	142986	67.01	1.05179
3	143205	67.11	1.13231
3	143424	67.21	1.19837
3	143628	67.31	1.25256
3	143838	67.41	1.29701
3	144054	67.51	1.33348
3	144264	67.61	1.36339
3	144468	67.71	1.38794
3	144675	67.81	1.40807
3	144888	67.91	1.42458
3	145103	68.01	1.43813
3	145316	68.11	1.44925
3	145538	68.21	1.45836
3	145757	68.31	1.46584
3	145961	68.41	1.47198
3	146174	68.51	1.47701
3	146393	68.61	1.48114
3	146615	68.71	1.48453
3	146825	68.81	1.48731
3	147032	68.91	1.48959
3	147259	69.01	1.49146
3	147472	69.11	1.49299
3	147685	69.21	1.49425
3	147904	69.31	1.49529
3	148117	69.41	1.49613
3	148327	69.51	1.49683
3	148543	69.61	1.4974
3	148759	69.71	1.49786
3	148972	69.81	1.49825
3	149185	69.91	1.49856
3	149403	70.01	1.49882
3	149619	70.11	1.49903
3	149838	70.21	1.49921
3	150057	70.31	1.49935
3	150270	70.41	1.49947
3	150486	70.51	1.49956
3	150696	70.61	1.49964
3	150909	70.71	1.49971
3	151125	70.81	1.49976
3	151329	70.91	1.4998
3	151547	71.01	1.49984
3	151751	71.11	1.49987
3	151964	71.21	1.49989
3	152186	71.31	1.49991
3	152384	71.41	1.49993
3	152597	71.51	1.49642
3	152813	71.61	1.46992
3	153026	71.71	1.42182
3	153239	71.81	1.35686
3	153452	71.91	1.27923
3	153679	72.01	1.1926
3	153889	72.11	1.10015
3	154096	72.21	1.00457
3	154321	72.31	0.908148
3	154540	72.41	0.812758
3	154753	72.51	0.719928
3	154963	72.61	0.630862
3	155170	72.71	0.546482
3	155389	72.81	0.46746
3	155599	72.91	0.394249
3	155823	73.01	0.32712
3	156036	73.11	0.266184
3	156249	73.21	0.21142
3	156468	73.31	0.162703
3	156678	73.41	0.11982
3	156891	73.51	0.0824918
3	157107	73.61	0.0503901
3	157323	73.71	0.0231518
3	157542	73.81	0.000391578
3	157749	73.91	-0.0182867
3	157973	74.01	-0.0332815
3	158195	74.11	-0.0449854
3	158399	74.21	-0.0537799
3	158618	74.31	-0.0600298
3	158831	74.41	-0.0640803
3	159044	74.51	-0.0662537
3	159248	74.61	-0.0668484
3	159467	74.71	-0.0661372
3	159671	74.81	-0.0643676
3	159893	74.91	-0.0617614
3	160120	75.01	-0.0585157
3	160339	75.11	-0.0548035
3	160555	75.21	-0.0507753
3	160774	75.31	-0.0465601
3	160987	75.41	-0.042267
3	161203	75.51	-0.0379871
3	161416	75.61	-0.0337948
3	161635	75.71	-0.0297495
3	161848	75.81	-0.0258973
3	162064	75.91	-0.0222727
3	162285	76.01	-0.0188998
3	162504	76.11	-0.0157939
3	162729	76.21	-0.0129626
3	162945	76.31	-0.0104075
3	163152	76.41	-0.00812481
3	163365	76.51	-0.00610644
3	163575	76.61	-0.00434116
3	163776	76.71	-0.00281515
3	163992	76.81	-0.00151279
3	164202	76.91	-0.000417277
3	164414	77.01	0.000488912
3	164618	77.11	0.00122353
3	164828	77.21	0.00180423
3	165050	77.31	0.00224825
3	165266	77.41	0.00257217
3	165473	77.51	0.00279177
3	165686	77.61	0.00292184
3	165887	77.71	0.00297614
3	166094	77.81	0.00296731
3	166304	77.91	0.00290684
3	166522	78.01	0.00280509
3	166738	78.11	0.00267132
3	166945	78.21	0.00251366
3	167164	78.31	0.00233925
3	167377	78.41	0.00215421
3	167584	78.51	0.00196377
3	167806	78.61	0.00177233
3	168019	78.71	0.00158349
3	168241	78.81	0.00140017
3	168457	78.91	0.00122468
3	168663	79.01	0.00105875
3	168876	79.11	0.000903633
3	169089	79.21	0.000760179
3	169305	79.31	0.000628862
3	169521	79.41	0.000509858
3	169740	79.51	0.000403088
3	169953	79.61	0.00030827
3	170157	79.71	0.000224957
3	170370	79.81	0.000152577
3	170589	79.91	9.04629e-05
3	170804	80.01	3.78854e-05
3	171020	80.11	-5.92597e-06
3	171242	80.21	-4.17602e-05
3	171458	80.31	-7.04078e-05
3	171674	80.41	-9.2646e-05
3	171890	80.51	-0.000109227
3	172097	80.61	-0.000120871
3	172316	80.71	-0.000128254
3	172523	80.81	-0.000132011
3	172733	80.91	-0.000132726
3	172945	81.01	-0.000130931
3	173164	81.11	-0.00012711
3	173374	81.21	-0.000121696
3	173587	81.31	-0.000115072
3	173803	81.41	-0.000107574
3	174019	81.51	-9.94937e-05
3	174232	81.61	-9.10804e-05
3	174442	81.71	-8.2545e-05
3	174652	81.81	-7.40625e-05
3	174862	81.91	-6.57755e-05
3	175080	82.01	-5.77975e-05
3	175293	82.11	-5.02162e-05
3	175509	82.21	-4.30962e-05
3	175716	82.31	-3.64823e-05
3	175929	82.41	-3.04023e-05
3	176151	82.51	-2.48692e-05
3	176358	82.61	-1.98842e-05
3	176571	82.71	-1.54381e-05
3	176787	82.81	-1.15138e-05
3	177000	82.91	-8.08803e-06
3	177218	83.01	-5.13264e-06
3	177431	83.11	-2.61613e-06
3	177638	83.21	-5.04789e-07
3	177854	83.31	1.2363e-06
3	178055	83.41	2.64242e-06
3	178268	83.51	3.74853e-06
3	178478	83.61	4.5887e-06
3	178694	83.71	5.19563e-06
3	178898	83.81	5.60034e-06
3	179111	83.91	5.83189e-06
3	179326	84.01	5.91724e-06
3	179539	84.11	5.88113e-06
3	179758	84.21	5.74602e-06
3	179971	84.31	5.53212e-06
3	180184	84.41	5.25743e-06
3	180400	84.51	4.93779e-06
3	180610	84.61	4.58702e-06
3	180820	84.71	4.21698e-06
3	181036	84.81	3.83779e-06
3	181252	84.91	3.45789e-06
3	181473	85.01	3.08422e-06
3	181683	85.11	2.72236e-06
3	181896	85.21	2.37668e-06
3	182112	85.31	2.05047e-06
3	182331	85.41	1.74609e-06
3	182541	85.51	1.46508e-06
3	182760	85.61	1.20827e-06
3	182982	85.71	9.75929e-07
3	183195	85.81	7.67822e-07
3	183414	85.91	5.83331e-07
3	183620	86.01	4.21522e-07
3	183836	86.11	2.81221e-07
3	184037	86.21	1.61082e-07
3	184250	86.31	5.96373e-08
3	184466	86.41	-2.4653e-08
3	184682	86.51	-9.33582e-08
3	184898	86.61	-1.48047e-07
3	185117	86.71	-1.90254e-07
3	185336	86.81	-2.21466e-07
3	185534	86.91	-2.43099e-07
3	185755	87.01	-2.56485e-07
3	185971	87.11	-2.62866e-07
3	186184	87.21	-2.63387e-07
3	186400	87.31	-2.59089e-07
3	186610	87.41	-2.50917e-07
3	186817	87.51	-2.39712e-07
3	187033	87.61	-2.26221e-07
3	187240	87.71	-2.11097e-07
3	187444	87.81	-1.94903e-07
3	187660	87.91	-1.78122e-07
3	187881	88.01	-1.61162e-07
3	188082	88.11	-1.44357e-07
3	188289	88.21	-1.27983e-07
3	188490	88.31	-1.12254e-07
3	188709	88.41	-9.73394e-08
3	188928	88.51	-8.3358e-08
3	189138	88.61	-7.0392e-08
3	189351	88.71	-5.84926e-08
3	189561	88.81	-4.76824e-08
3	189771	88.91	-3.79593e-08
3	189980	89.01	-2.93028e-08
3	190193	89.11	-2.16751e-08
3	190406	89.21	-1.50287e-08
3	190619	89.31	-9.3074e-09
3	190835	89.41	-4.44658e-09
3	191051	89.51	-3.7943e-10
3	191264	89.61	2.96509e-09
3	191474	89.71	5.65379e-09
3	191696	89.81	7.75984e-09
3	191903	89.91	9.34648e-09
7	113	1.11	242.45
7	320	1.21	242.45
7	536	1.31	242.45
7	755	1.41	242.45
7	971	1.51	242.45
7	1178	1.61	242.45
7	1400	1.71	242.45
7	1601	1.81	242.45
7	1820	1.91	242.45
7	2041	2.01	242.45
7	2254	2.11	242.45
7	2470	2.21	242.45
7	2686	2.31	242.45
7	2908	2.41	242.45
7	3118	2.51	242.45
7	3328	2.61	242.45
7	3544	2.71	242.45
7	3760	2.81	242.45
7	3979	2.91	242.45
7	4185	3.01	242.45
7	4398	3.11	242.45
7	4611	3.21	242.45
7	4830	3.31	242.45
7	5043	3.41	242.45
7	5256	3.51	242.45
7	5469	3.61	242.45
7	5673	3.71	242.45
7	5874	3.81	242.45
7	6090	3.91	242.45
7	6299	4.01	242.45
7	6509	4.11	242.45
7	6725	4.21	242.45
7	6947	4.31	242.45
7	7154	4.41	242.45
7	7370	4.51	242.45
7	7583	4.61	242.45
7	7799	4.71	242.45
7	8021	4.81	242.45
7	8228	4.91	242.45
7	8434	5.01	242.45
7	8644	5.11	242.45
7	8863	5.21	242.45
7	9067	5.31	242.45
7	9283	5.41	242.45
7	9499	5.51	242.45
7	9709	5.61	242.45
7	9916	5.71	242.45
7	10123	5.81	242.45
7	10339	5.91	242.45
7	10560	6.01	242.45
7	10773	6.11	242.45
7	10992	6.21	242.45
7	11205	6.31	242.45
7	11418	6.41	242.45
7	11631	6.51	242.45
7	11853	6.61	242.45
7	12072	6.71	242.45
7	12288	6.81	242.45
7	12504	6.91	242.45
7	12719	7.01	242.45
7	12935	7.11	242.45
7	13148	7.21	242.45
7	13361	7.31	242.45
7	13577	7.41	242.45
7	13796	7.51	242.45
7	14003	7.61	242.45
7	14219	7.71	242.45
7	14432	7.81	242.45
7	14642	7.91	242.45
7	14854	8.01	242.45
7	15079	8.11	242.45
7	15295	8.21	242.45
7	15505	8.31	242.45
7	15724	8.41	242.45
7	15934	8.51	242.45
7	16141	8.61	242.45
7	16351	8.71	242.45
7	16558	8.81	242.45
7	16768	8.91	242.45
7	16986	9.01	242.45
7	17199	9.11	242.45
7	17403	9.21	242.45
7	17625	9.31	242.45
7	17838	9.41	242.45
7	18054	9.51	242.45
7	18261	9.61	242.45
7	18468	9.71	242.45
7	18678	9.81	242.45
7	18900	9.91	242.45
7	19112	10.01	242.45
7	19325	10.11	242.45
7	19535	10.21	242.45
7	19757	10.31	242.45
7	19973	10.41	242.45
7	20177	10.51	242.45
7	20384	10.61	242.45
7	20594	10.71	242.45
7	20810	10.81	242.45
7	21029	10.91	242.45
7	21254	11.01	242.45
7	21963	11.11	242.45
7	22182	11.21	242.45
7	22398	11.31	242.45
7	22617	11.41	242.45
7	22833	11.51	242.45
7	23040	11.61	242.45
7	23253	11.71	242.45
7	23469	11.81	242.45
7	23679	11.91	242.45
7	23891	12.01	242.45
7	24107	12.11	242.45
7	24317	12.21	242.45
7	24515	12.31	242.45
7	24737	12.41	242.45
7	24947	12.51	242.45
7	25154	12.61	242.45
7	25376	12.71	242.45
7	25586	12.81	242.45
7	25802	12.91	242.45
7	26020	13.01	242.45
7	26236	13.11	242.45
7	26446	13.21	242.45
7	26656	13.31	242.45
7	26875	13.41	242.45
7	27082	13.51	242.45
7	27304	13.61	242.45
7	27514	13.71	242.45
7	27724	13.81	242.45
7	27940	13.91	242.45
7	28161	14.01	242.45
7	28365	14.11	242.45
7	28575	14.21	242.45
7	28788	14.31	242.45
7	28995	14.41	242.45
7	29211	14.51	242.45
7	29424	14.61	242.45
7	29640	14.71	242.45
7	29856	14.81	242.45
7	30072	14.91	242.45
7	30290	15.01	242.45
7	30506	15.11	242.45
7	30719	15.21	242.45
7	30929	15.31	242.45
7	31145	15.41	242.45
7	31355	15.51	242.45
7	31571	15.61	242.45
7	31790	15.71	242.45
7	32003	15.81	242.45
7	32213	15.91	242.45
7	32428	16.01	242.45
7	32635	16.11	242.45
7	32848	16.21	242.45
7	33070	16.31	242.45
7	33286	16.41	242.45
7	33496	16.51	242.45
7	33718	16.61	242.45
7	33928	16.71	242.45
7	34141	16.81	242.45
7	34357	16.91	242.45
7	34569	17.01	242.45
7	34779	17.11	242.45
7	34995	17.21	242.45
7	35211	17.31	242.45
7	35427	17.41	242.45
7	35640	17.51	242.45
7	35850	17.61	242.45
7	36066	17.71	242.45
7	36279	17.81	242.45
7	36489	17.91	242.45
7	36716	18.01	242.45
7	36935	18.11	242.45
7	37142	18.21	242.45
7	37364	18.31	242.45
7	37559	18.41	242.45
7	37769	18.51	242.45
7	37982	18.61	242.45
7	38186	18.71	242.45
7	38396	18.81	242.45
7	38612	18.91	242.45
7	38827	19.01	242.45
7	39040	19.11	242.45
7	39259	19.21	242.45
7	39463	19.31	242.45
7	39679	19.41	242.45
7	39892	19.51	242.45
7	40108	19.61	242.45
7	40321	19.71	242.45
7	40531	19.81	242.45
7	40747	19.91	242.45
7	40962	20.01	242.45
7	41175	20.11	242.45
7	41385	20.21	242.45
7	41592	20.31	242.45
7	41802	20.41	242.45
7	42015	20.51	242.45
7	42234	20.61	242.45
7	42438	20.71	242.45
7	42642	20.81	242.45
7	42852	20.91	242.45
7	43076	21.01	242.45
7	43292	21.11	242.45
7	43505	21.21	242.45
7	43718	21.31	242.45
7	43931	21.41	242.45
7	44135	21.51	242.45
7	44351	21.61	242.45
7	44561	21.71	242.45
7	44774	21.81	242.45
7	44990	21.91	242.45
7	45217	22.01	242.45
7	45427	22.11	242.45
7	45640	22.21	242.45
7	45853	22.31	242.45
7	46072	22.41	242.45
7	46279	22.51	242.45
7	46486	22.61	242.45
7	46699	22.71	242.45
7	46915	22.81	242.45
7	47131	22.91	242.45
7	47349	23.01	242.45
7	47771	23.11	242.45
7	47984	23.21	242.45
7	48203	23.31	242.45
7	48422	23.41	242.45
7	48635	23.51	242.45
7	48848	23.61	242.45
7	49052	23.71	242.45
7	49265	23.81	242.45
7	49469	23.91	242.45
7	49690	24.01	242.45
7	49894	24.11	242.45
7	50110	24.21	242.45
7	50323	24.31	242.45
7	50542	24.41	242.45
7	50746	24.51	242.45
7	50962	24.61	242.45
7	51169	24.71	242.45
7	51370	24.81	242.45
7	51586	24.91	242.45
7	51804	25.01	242.45
7	52017	25.11	242.45
7	52233	25.21	242.45
7	52440	25.31	242.45
7	52644	25.41	242.45
7	52857	25.51	242.45
7	53064	25.61	242.45
7	53280	25.71	242.45
7	53496	25.81	242.45
7	53706	25.91	242.45
7	53921	26.01	242.45
7	54134	26.11	242.45
7	54350	26.21	242.45
7	54569	26.31	242.45
7	54785	26.41	242.45
7	54989	26.51	242.45
7	55208	26.61	242.45
7	55421	26.71	242.45
7	55634	26.81	242.45
7	55844	26.91	242.45
7	56062	27.01	242.45
7	56278	27.11	242.45
7	56491	27.21	242.45
7	56695	27.31	242.45
7	56914	27.41	242.45
7	57130	27.51	242.45
7	57352	27.61	242.45
7	57568	27.71	242.45
7	57778	27.81	242.45
7	57994	27.91	242.45
7	58224	28.01	242.45
7	58437	28.11	242.45
7	58650	28.21	242.45
7	58857	28.31	242.45
7	59073	28.41	242.45
7	59283	28.51	242.45
7	59496	28.61	242.45
7	59712	28.71	242.45
7	59925	28.81	242.45
7	60141	28.91	242.45
7	60356	29.01	242.45
7	60572	29.11	242.45
7	60776	29.21	242.45
7	60998	29.31	242.45
7	61208	29.41	242.45
7	61427	29.51	242.45
7	61649	29.61	242.45
7	61859	29.71	242.45
7	62075	29.81	242.45
7	62294	29.91	242.45
7	62503	30.01	242.45
7	62722	30.11	242.45
7	62938	30.21	242.45
7	63154	30.31	242.45
7	63619	30.41	242.45
7	63826	30.51	242.45
7	64039	30.61	242.45
7	64255	30.71	242.45
7	64468	30.81	242.45
7	64678	30.91	242.45
7	64896	31.01	242.45
7	65118	31.11	242.45
7	65334	31.21	242.45
7	65547	31.31	242.45
7	65766	31.41	242.45
7	65985	31.51	242.45
7	66201	31.61	242.45
7	66411	31.71	242.45
7	66630	31.81	242.45
7	66849	31.91	242.45
7	67070	32.01	242.45
7	67280	32.11	242.45
7	67493	32.21	242.45
7	67709	32.31	242.45
7	67919	32.41	242.45
7	68132	32.51	242.45
7	68339	32.61	242.45
7	68552	32.71	242.45
7	68771	32.81	242.45
7	68978	32.91	242.45
7	69199	33.01	242.45
7	69418	33.11	242.45
7	69625	33.21	242.45
7	69847	33.31	242.45
7	70063	33.41	242.45
7	70276	33.51	242.45
7	70486	33.61	242.45
7	70696	33.71	242.45
7	70915	33.81	242.45
7	71131	33.91	242.45
7	71349	34.01	242.45
7	71550	34.11	242.45
7	71763	34.21	242.45
7	71985	34.31	242.45
7	72195	34.41	242.45
7	72411	34.51	242.45
7	72627	34.61	242.45
7	72843	34.71	242.45
7	73044	34.81	242.45
7	73263	34.91	242.45
7	73478	35.01	242.45
7	73688	35.11	242.45
7	73904	35.21	242.45
7	74111	35.31	242.45
7	74327	35.41	242.45
7	74543	35.51	242.45
7	74762	35.61	242.45
7	74978	35.71	242.45
7	75185	35.81	242.45
7	75395	35.91	242.45
7	75622	36.01	242.45
7	75838	36.11	242.45
7	76054	36.21	242.45
7	76267	36.31	242.45
7	76483	36.41	242.45
7	76684	36.51	242.45
7	76900	36.61	242.45
7	77110	36.71	242.45
7	77317	36.81	242.45
7	77524	36.91	242.45
7	77751	37.01	242.45
7	77961	37.11	242.45
7	78177	37.21	242.45
7	78387	37.31	242.45
7	78603	37.41	242.45
7	78804	37.51	242.45
7	79014	37.61	242.45
7	79233	37.71	242.45
7	79443	37.81	242.45
7	79665	37.91	242.45
7	79874	38.01	242.45
7	80090	38.11	242.45
7	80300	38.21	242.45
7	80522	38.31	242.45
7	80735	38.41	242.45
7	80957	38.51	242.45
7	81161	38.61	242.45
7	81380	38.71	242.45
7	81596	38.81	242.45
7	81800	38.91	242.45
7	82012	39.01	242.45
7	82231	39.11	242.45
7	82444	39.21	242.45
7	82663	39.31	242.45
7	82867	39.41	242.45
7	83083	39.51	242.45
7	83296	39.61	242.45
7	83506	39.71	242.45
7	83722	39.81	242.45
7	83923	39.91	242.45
7	84150	40.01	242.45
7	84360	40.11	242.45
7	84576	40.21	242.45
7	84786	40.31	242.45
7	84987	40.41	242.45
7	85200	40.51	242.45
7	85413	40.61	242.45
7	85623	40.71	242.45
7	85839	40.81	242.45
7	86049	40.91	242.45
7	86267	41.01	242.45
7	86483	41.11	242.45
7	86687	41.21	242.45
7	86909	41.31	242.45
7	87119	41.41	242.45
7	87338	41.51	242.45
7	87542	41.61	242.45
7	87755	41.71	242.45
7	87968	41.81	242.45
7	88181	41.91	242.45
7	88399	42.01	242.45
7	88618	42.11	242.45
7	88834	42.21	242.45
7	89047	42.31	242.45
7	89260	42.41	242.45
7	89473	42.51	242.45
7	89692	42.61	242.45
7	89902	42.71	242.45
7	90115	42.81	242.45
7	90337	42.91	242.45
7	90552	43.01	242.45
7	90771	43.11	242.45
7	90993	43.21	242.45
7	91206	43.31	242.45
7	91419	43.41	242.45
7	91629	43.51	242.45
7	91845	43.61	242.45
7	92055	43.71	242.45
7	92268	43.81	242.45
7	92484	43.91	242.45
7	92696	44.01	242.45
7	92906	44.11	242.45
7	93110	44.21	242.45
7	93320	44.31	242.45
7	93533	44.41	242.45
7	93749	44.51	242.45
7	93968	44.61	242.45
7	94178	44.71	242.45
7	94394	44.81	242.45
7	94607	44.91	242.45
7	95218	45.01	242.45
7	95437	45.11	242.45
7	95659	45.21	242.45
7	95869	45.31	242.45
7	96088	45.41	242.45
7	96298	45.51	242.45
7	96508	45.61	242.45
7	96718	45.71	242.45
7	96925	45.81	242.45
7	97138	45.91	242.45
7	97350	46.01	242.45
7	97548	46.11	242.45
7	97761	46.21	242.45
7	97977	46.31	242.45
7	98187	46.41	242.45
7	98400	46.51	242.45
7	98613	46.61	242.45
7	98820	46.71	242.45
7	99033	46.81	242.45
7	99243	46.91	242.45
7	99452	47.01	242.45
7	99665	47.11	242.45
7	99875	47.21	242.45
7	100088	47.31	242.45
7	100286	47.41	242.45
7	100496	47.51	242.45
7	100709	47.61	242.45
7	100925	47.71	242.45
7	101141	47.81	242.45
7	101366	47.91	242.45
7	101578	48.01	242.45
7	101788	48.11	242.45
7	102010	48.21	242.45
7	102226	48.31	242.45
7	102436	48.41	242.45
7	102640	48.51	242.45
7	102853	48.61	242.45
7	103069	48.71	242.45
7	103288	48.81	242.45
7	103507	48.91	242.45
7	103722	49.01	242.45
7	103929	49.11	242.45
7	104142	49.21	242.45
7	104355	49.31	242.45
7	104565	49.41	242.45
7	104781	49.51	242.45
7	104988	49.61	242.45
7	105204	49.71	242.45
7	105420	49.81	242.45
7	105633	49.91	242.45
7	105848	50.01	242.45
7	106070	50.11	242.45
7	106283	50.21	242.45
7	106499	50.31	242.45
7	106709	50.41	242.45
7	106931	50.51	242.45
7	107138	50.61	242.45
7	107360	50.71	242.45
7	107570	50.81	242.45
7	107783	50.91	242.45
7	108007	51.01	242.45
7	108223	51.11	242.45
7	108436	51.21	242.45
7	108646	51.31	242.45
7	108859	51.41	242.45
7	109075	51.51	242.45
7	109285	51.61	242.45
7	109504	51.71	242.45
7	109708	51.81	242.45
7	109924	51.91	242.45
7	110145	52.01	242.45
7	110358	52.11	242.45
7	110565	52.21	242.45
7	110784	52.31	242.45
7	110997	52.41	242.45
7	111210	52.51	242.45
7	111426	52.61	242.45
7	111642	52.71	242.45
7	111861	52.81	242.45
7	112074	52.91	242.45
7	112298	53.01	242.45
7	112508	53.11	242.45
7	112718	53.21	242.45
7	112928	53.31	242.45
7	113147	53.41	242.45
7	113357	53.51	242.45
7	113570	53.61	242.45
7	113786	53.71	242.45
7	114005	53.81	242.45
7	114221	53.91	242.45
7	114445	54.01	242.45
7	114664	54.11	242.45
7	114877	54.21	242.45
7	115087	54.31	242.45
7	115294	54.41	242.45
7	115510	54.51	242.45
7	115720	54.61	242.45
7	115930	54.71	242.45
7	116152	54.81	242.45
7	116368	54.91	242.45
7	116595	55.01	242.45
7	116805	55.11	242.45
7	117012	55.21	242.45
7	117234	55.31	242.45
7	117447	55.41	242.45
7	117663	55.51	242.45
7	117876	55.61	242.45
7	118080	55.71	242.45
7	118302	55.81	242.45
7	118515	55.91	242.45
7	118730	56.01	242.45
7	118949	56.11	242.45
7	119162	56.21	242.45
7	119369	56.31	242.45
7	119567	56.41	242.45
7	119780	56.51	242.45
7	119996	56.61	242.45
7	120200	56.71	242.45
7	120422	56.81	242.45
7	120632	56.91	242.45
7	120982	57.01	242.45
7	121207	57.11	242.45
7	121411	57.21	242.45
7	121627	57.31	242.45
7	121843	57.41	242.45
7	122053	57.51	242.45
7	122263	57.61	242.45
7	122476	57.71	242.45
7	122692	57.81	242.45
7	122911	57.91	242.45
7	123129	58.01	242.45
7	123333	58.11	242.45
7	123549	58.21	242.45
7	123768	58.31	242.45
7	123978	58.41	242.45
7	124197	58.51	242.45
7	124407	58.61	242.45
7	124620	58.71	242.45
7	124839	58.81	242.45
7	125055	58.91	242.45
7	125270	59.01	242.45
7	125492	59.11	242.45
7	125714	59.21	242.45
7	125933	59.31	242.45
7	126143	59.41	242.45
7	126353	59.51	242.45
7	126563	59.61	242.45
7	126779	59.71	242.45
7	126992	59.81	242.45
7	127199	59.91	242.45
7	127420	60.01	242.45
7	127636	60.11	242.45
7	127843	60.21	242.45
7	128065	60.31	242.45
7	128278	60.41	242.45
7	128494	60.51	242.45
7	128701	60.61	242.45
7	128911	60.71	242.45
7	129118	60.81	242.45
7	129325	60.91	242.45
7	129537	61.01	242.45
7	129756	61.11	242.45
7	129972	61.21	242.45
7	130182	61.31	242.45
7	130401	61.41	242.45
7	130614	61.51	242.45
7	130827	61.61	242.45
7	131031	61.71	242.45
7	131241	61.81	242.45
7	131457	61.91	242.45
7	131681	62.01	242.45
7	131891	62.11	242.45
7	132107	62.21	242.45
7	132323	62.31	242.45
7	132533	62.41	242.45
7	132740	62.51	242.45
7	132947	62.61	242.45
7	133160	62.71	242.45
7	133376	62.81	242.45
7	133592	62.91	242.45
7	133819	63.01	242.45
7	134029	63.11	242.45
7	134242	63.21	242.45
7	134449	63.31	242.45
7	134662	63.41	242.45
7	134872	63.51	242.45
7	135094	63.61	242.45
7	135304	63.71	242.45
7	135526	63.81	242.45
7	135742	63.91	242.45
7	135954	64.01	242.45
7	136164	64.11	242.45
7	136377	64.21	242.45
7	136593	64.31	242.45
7	136809	64.41	242.45
7	137025	64.51	242.45
7	137232	64.61	242.45
7	137451	64.71	242.45
7	137661	64.81	242.45
7	137874	64.91	242.45
7	138098	65.01	242.45
7	138314	65.11	242.45
7	138527	65.21	242.45
7	138749	65.31	242.45
7	138962	65.41	242.45
7	139181	65.51	242.45
7	139394	65.61	242.45
7	139613	65.71	242.45
7	139829	65.81	242.45
7	140039	65.91	242.45
7	140251	66.01	242.45
7	140467	66.11	242.45
7	140680	66.21	242.45
7	140899	66.31	242.45
7	141712	66.41	242.45
7	141925	66.51	245.75
7	142135	66.61	245.75
7	142348	66.71	245.75
7	142552	66.81	245.75
7	142765	66.91	245.75
7	142986	67.01	245.75
7	143205	67.11	245.75
7	143424	67.21	245.75
7	143628	67.31	245.75
7	143838	67.41	245.75
7	144054	67.51	245.75
7	144264	67.61	245.75
7	144468	67.71	245.75
7	144675	67.81	245.75
7	144888	67.91	245.75
7	145103	68.01	245.75
7	145316	68.11	245.75
7	145538	68.21	245.75
7	145757	68.31	245.75
7	145961	68.41	245.75
7	146174	68.51	245.75
7	146393	68.61	245.75
7	146615	68.71	245.75
7	146825	68.81	245.75
7	147032	68.91	245.75
7	147259	69.01	245.75
7	147472	69.11	245.75
7	147685	69.21	245.75
7	147904	69.31	245.75
7	148117	69.41	245.75
7	148327	69.51	245.75
7	148543	69.61	245.75
7	148759	69.71	245.75
7	148972	69.81	245.75
7	149185	69.91	245.75
7	149403	70.01	245.75
7	149619	70.11	245.75
7	149838	70.21	245.75
7	150057	70.31	245.75
7	150270	70.41	245.75
7	150486	70.51	245.75
7	150696	70.61	245.75
7	150909	70.71	245.75
7	151125	70.81	245.75
7	151329	70.91	245.75
7	151547	71.01	245.75
7	151751	71.11	245.75
7	151964	71.21	245.75
7	152186	71.31	245.75
7	152384	71.41	245.75
7	152597	71.51	245.75
7	152813	71.61	245.75
7	153026	71.71	245.75
7	153239	71.81	245.75
7	153452	71.91	245.75
7	153679	72.01	245.75
7	153889	72.11	245.75
7	154096	72.21	245.75
7	154321	72.31	245.75
7	154540	72.41	245.75
7	154753	72.51	245.75
7	154963	72.61	245.75
7	155170	72.71	245.75
7	155389	72.81	245.75
7	155599	72.91	245.75
7	155823	73.01	245.75
7	156036	73.11	245.75
7	156249	73.21	245.75
7	156468	73.31	245.75
7	156678	73.41	245.75
7	156891	73.51	245.75
7	157107	73.61	245.75
7	157323	73.71	245.75
7	157542	73.81	245.75
7	157749	73.91	245.75
7	157973	74.01	245.75
7	158195	74.11	245.75
7	158399	74.21	245.75
7	158618	74.31	245.75
7	158831	74.41	245.75
7	159044	74.51	245.75
7	159248	74.61	245.75
7	159467	74.71	245.75
7	159671	74.81	245.75
7	159893	74.91	245.75
7	160120	75.01	245.75
7	160339	75.11	245.75
7	160555	75.21	245.75
7	160774	75.31	245.75
7	160987	75.41	245.75
7	161203	75.51	245.75
7	161416	75.61	245.75
7	161635	75.71	245.75
7	161848	75.81	245.75
7	162064	75.91	245.75
7	162285	76.01	245.75
7	162504	76.11	245.75
7	162729	76.21	245.75
7	162945	76.31	245.75
7	163152	76.41	245.75
7	163365	76.51	245.75
7	163575	76.61	245.75
7	163776	76.71	245.75
7	163992	76.81	245.75
7	164202	76.91	245.75
7	164414	77.01	245.75
7	164618	77.11	245.75
7	164828	77.21	245.75
7	165050	77.31	245.75
7	165266	77.41	245.75
7	165473	77.51	245.75
7	165686	77.61	245.75
7	165887	77.71	245.75
7	166094	77.81	245.75
7	166304	77.91	245.75
7	166522	78.01	245.75
7	166738	78.11	245.75
7	166945	78.21	245.75
7	167164	78.31	245.75
7	167377	78.41	245.75
7	167584	78.51	245.75
7	167806	78.61	245.75
7	168019	78.71	245.75
7	168241	78.81	245.75
7	168457	78.91	245.75
7	168663	79.01	245.75
7	168876	79.11	245.75
7	169089	79.21	245.75
7	169305	79.31	245.75
7	169521	79.41	245.75
7	169740	79.51	245.75
7	169953	79.61	245.75
7	170157	79.71	245.75
7	170370	79.81	245.75
7	170589	79.91	245.75
7	170804	80.01	245.75
7	171020	80.11	245.75
7	171242	80.21	245.75
7	171458	80.31	245.75
7	171674	80.41	245.75
7	171890	80.51	245.75
7	172097	80.61	245.75
7	172316	80.71	245.75
7	172523	80.81	245.75
7	172733	80.91	245.75
7	172945	81.01	245.75
7	173164	81.11	245.75
7	173374	81.21	245.75
7	173587	81.31	245.75
7	173803	81.41	245.75
7	174019	81.51	245.75
7	174232	81.61	245.75
7	174442	81.71	245.75
7	174652	81.81	245.75
7	174862	81.91	245.75
7	175080	82.01	245.75
7	175293	82.11	245.75
7	175509	82.21	245.75
7	175716	82.31	245.75
7	175929	82.41	245.75
7	176151	82.51	245.75
7	176358	82.61	245.75
7	176571	82.71	245.75
7	176787	82.81	245.75
7	177000	82.91	245.75
7	177218	83.01	245.75
7	177431	83.11	245.75
7	177638	83.21	245.75
7	177854	83.31	245.75
7	178055	83.41	245.75
7	178268	83.51	245.75
7	178478	83.61	245.75
7	178694	83.71	245.75
7	178898	83.81	245.75
7	179111	83.91	245.75
7	179326	84.01	245.75
7	179539	84.11	245.75
7	179758	84.21	245.75
7	179971	84.31	245.75
7	180184	84.41	245.75
7	180400	84.51	245.75
7	180610	84.61	245.75
7	180820	84.71	245.75
7	181036	84.81	245.75
7	181252	84.91	245.75
7	181473	85.01	245.75
7	181683	85.11	245.75
7	181896	85.21	245.75
7	182112	85.31	245.75
7	182331	85.41	245.75
7	182541	85.51	245.75
7	182760	85.61	245.75
7	182982	85.71	245.75
7	183195	85.81	245.75
7	183414	85.91	245.75
7	183620	86.01	245.75
7	183836	86.11	245.75
7	184037	86.21	245.75
7	184250	86.31	245.75
7	184466	86.41	245.75
7	184682	86.51	245.75
7	184898	86.61	245.75
7	185117	86.71	245.75
7	185336	86.81	245.75
7	185534	86.91	245.75
7	185755	87.01	245.75
7	185971	87.11	245.75
7	186184	87.21	245.75
7	186400	87.31	245.75
7	186610	87.41	245.75
7	186817	87.51	245.75
7	187033	87.61	245.75
7	187240	87.71	245.75
7	187444	87.81	245.75
7	187660	87.91	245.75
7	187881	88.01	245.75
7	188082	88.11	245.75
7	188289	88.21	245.75
7	188490	88.31	245.75
7	188709	88.41	245.75
7	188928	88.51	245.75
7	189138	88.61	245.75
7	189351	88.71	245.75
7	189561	88.81	245.75
7	189771	88.91	245.75
7	189980	89.01	245.75
7	190193	89.11	245.75
7	190406	89.21	245.75
7	190619	89.31	245.75
7	190835	89.41	245.75
7	191051	89.51	245.75
7	191264	89.61	245.75
7	191474	89.71	245.75
7	191696	89.81	245.75
7	191903	89.91	245.75
6	113	1.11	48.4902
6	320	1.21	51.2682
6	536	1.31	54.0462
6	755	1.41	56.8242
6	971	1.51	59.6021
6	1178	1.61	62.3801
6	1400	1.71	65.158
6	1601	1.81	67.936
6	1820	1.91	70.7139
6	2041	2.01	73.4918
6	2254	2.11	76.2697
6	2470	2.21	79.0475
6	2686	2.31	81.8254
6	2908	2.41	84.6032
6	3118	2.51	87.3811
6	3328	2.61	90.1589
6	3544	2.71	92.9367
6	3760	2.81	95.7145
6	3979	2.91	98.4923
6	4185	3.01	101.27
6	4398	3.11	104.048
6	4611	3.21	106.826
6	4830	3.31	109.604
6	5043	3.41	112.381
6	5256	3.51	115.159
6	5469	3.61	117.937
6	5673	3.71	120.715
6	5874	3.81	123.492
6	6090	3.91	126.27
6	6299	4.01	129.048
6	6509	4.11	131.826
6	6725	4.21	134.603
6	6947	4.31	137.381
6	7154	4.41	140.159
6	7370	4.51	142.937
6	7583	4.61	145.715
6	7799	4.71	148.492
6	8021	4.81	151.27
6	8228	4.91	154.048
6	8434	5.01	156.826
6	8644	5.11	159.603
6	8863	5.21	162.381
6	9067	5.31	165.159
6	9283	5.41	167.937
6	9499	5.51	170.715
6	9709	5.61	173.492
6	9916	5.71	176.27
6	10123	5.81	179.048
6	10339	5.91	181.826
6	10560	6.01	184.603
6	10773	6.11	187.381
6	10992	6.21	190.159
6	11205	6.31	192.937
6	11418	6.41	195.715
6	11631	6.51	198.492
6	11853	6.61	201.27
6	12072	6.71	204.048
6	12288	6.81	206.826
6	12504	6.91	209.603
6	12719	7.01	212.381
6	12935	7.11	215.159
6	13148	7.21	217.937
6	13361	7.31	220.715
6	13577	7.41	223.492
6	13796	7.51	226.27
6	14003	7.61	229.048
6	14219	7.71	231.826
6	14432	7.81	234.603
6	14642	7.91	237.381
6	14854	8.01	240.159
6	15079	8.11	242.937
6	15295	8.21	245.715
6	15505	8.31	248.492
6	15724	8.41	251.27
6	15934	8.51	254.048
6	16141	8.61	256.826
6	16351	8.71	259.603
6	16558	8.81	262.381
6	16768	8.91	265.159
6	16986	9.01	267.937
6	17199	9.11	270.715
6	17403	9.21	273.492
6	17625	9.31	276.27
6	17838	9.41	279.048
6	18054	9.51	281.826
6	18261	9.61	284.603
6	18468	9.71	287.381
6	18678	9.81	290.159
6	18900	9.91	292.937
6	19112	10.01	295.715
6	19325	10.11	298.492
6	19535	10.21	301.27
6	19757	10.31	304.048
6	19973	10.41	306.826
6	20177	10.51	309.604
6	20384	10.61	312.381
6	20594	10.71	315.159
6	20810	10.81	317.937
6	21029	10.91	320.715
6	21254	11.01	323.492
6	21963	11.11	326.27
6	22182	11.21	329.048
6	22398	11.31	331.826
6	22617	11.41	334.604
6	22833	11.51	337.381
6	23040	11.61	340.159
6	23253	11.71	342.937
6	23469	11.81	345.715
6	23679	11.91	348.492
6	23891	12.01	351.27
6	24107	12.11	354.048
6	24317	12.21	356.826
6	24515	12.31	359.604
6	24737	12.41	362.381
6	24947	12.51	365.159
6	25154	12.61	367.937
6	25376	12.71	370.715
6	25586	12.81	373.492
6	25802	12.91	376.27
6	26020	13.01	379.048
6	26236	13.11	381.826
6	26446	13.21	384.604
6	26656	13.31	387.381
6	26875	13.41	390.159
6	27082	13.51	392.937
6	27304	13.61	395.715
6	27514	13.71	398.492
6	27724	13.81	401.27
6	27940	13.91	404.048
6	28161	14.01	406.826
6	28365	14.11	409.604
6	28575	14.21	412.381
6	28788	14.31	415.159
6	28995	14.41	417.937
6	29211	14.51	420.715
6	29424	14.61	423.492
6	29640	14.71	426.27
6	29856	14.81	429.048
6	30072	14.91	431.826
6	30290	15.01	434.604
6	30506	15.11	437.381
6	30719	15.21	440.159
6	30929	15.31	442.937
6	31145	15.41	445.715
6	31355	15.51	448.493
6	31571	15.61	451.27
6	31790	15.71	454.048
6	32003	15.81	456.826
6	32213	15.91	459.604
6	32428	16.01	462.381
6	32635	16.11	465.159
6	32848	16.21	467.937
6	33070	16.31	470.715
6	33286	16.41	473.493
6	33496	16.51	476.27
6	33718	16.61	479.048
6	33928	16.71	481.826
6	34141	16.81	484.604
6	34357	16.91	487.381
6	34569	17.01	490.159
6	34779	17.11	492.937
6	34995	17.21	495.715
6	35211	17.31	498.493
6	35427	17.41	501.27
6	35640	17.51	504.048
6	35850	17.61	506.826
6	36066	17.71	509.604
6	36279	17.81	512.381
6	36489	17.91	515.159
6	36716	18.01	517.937
6	36935	18.11	520.715
6	37142	18.21	523.493
6	37364	18.31	526.27
6	37559	18.41	529.048
6	37769	18.51	531.826
6	37982	18.61	534.604
6	38186	18.71	537.381
6	38396	18.81	540.159
6	38612	18.91	542.937
6	38827	19.01	545.715
6	39040	19.11	548.493
6	39259	19.21	551.27
6	39463	19.31	554.048
6	39679	19.41	556.826
6	39892	19.51	559.604
6	40108	19.61	562.381
6	40321	19.71	565.159
6	40531	19.81	567.937
6	40747	19.91	570.715
6	40962	20.01	573.493
6	41175	20.11	576.27
6	41385	20.21	579.048
6	41592	20.31	581.826
6	41802	20.41	584.604
6	42015	20.51	587.382
6	42234	20.61	590.159
6	42438	20.71	592.937
6	42642	20.81	595.715
6	42852	20.91	598.493
6	43076	21.01	601.27
6	43292	21.11	604.048
6	43505	21.21	606.826
6	43718	21.31	609.604
6	43931	21.41	612.382
6	44135	21.51	615.159
6	44351	21.61	617.937
6	44561	21.71	620.715
6	44774	21.81	623.493
6	44990	21.91	626.27
6	45217	22.01	629.048
6	45427	22.11	631.826
6	45640	22.21	634.604
6	45853	22.31	637.382
6	46072	22.41	640.159
6	46279	22.51	642.937
6	46486	22.61	645.715
6	46699	22.71	648.493
6	46915	22.81	651.27
6	47131	22.91	654.048
6	47349	23.01	656.826
6	47771	23.11	659.604
6	47984	23.21	662.382
6	48203	23.31	665.159
6	48422	23.41	667.937
6	48635	23.51	670.715
6	48848	23.61	673.493
6	49052	23.71	676.27
6	49265	23.81	679.048
6	49469	23.91	681.826
6	49690	24.01	684.604
6	49894	24.11	687.382
6	50110	24.21	690.159
6	50323	24.31	692.937
6	50542	24.41	695.715
6	50746	24.51	698.493
6	50962	24.61	701.27
6	51169	24.71	704.048
6	51370	24.81	706.826
6	51586	24.91	709.604
6	51804	25.01	712.382
6	52017	25.11	715.159
6	52233	25.21	717.937
6	52440	25.31	720.715
6	52644	25.41	723.493
6	52857	25.51	726.271
6	53064	25.61	729.048
6	53280	25.71	731.826
6	53496	25.81	734.604
6	53706	25.91	737.382
6	53921	26.01	740.159
6	54134	26.11	742.937
6	54350	26.21	745.715
6	54569	26.31	748.493
6	54785	26.41	751.271
6	54989	26.51	754.048
6	55208	26.61	756.826
6	55421	26.71	759.604
6	55634	26.81	762.382
6	55844	26.91	765.159
6	56062	27.01	767.937
6	56278	27.11	770.715
6	56491	27.21	773.493
6	56695	27.31	776.271
6	56914	27.41	779.048
6	57130	27.51	781.826
6	57352	27.61	784.604
6	57568	27.71	787.382
6	57778	27.81	790.159
6	57994	27.91	792.937
6	58224	28.01	795.715
6	58437	28.11	798.493
6	58650	28.21	801.271
6	58857	28.31	804.048
6	59073	28.41	806.826
6	59283	28.51	809.604
6	59496	28.61	812.382
6	59712	28.71	815.159
6	59925	28.81	817.937
6	60141	28.91	820.715
6	60356	29.01	823.493
6	60572	29.11	826.271
6	60776	29.21	829.048
6	60998	29.31	831.826
6	61208	29.41	834.604
6	61427	29.51	837.382
6	61649	29.61	840.159
6	61859	29.71	842.937
6	62075	29.81	845.715
6	62294	29.91	848.493
6	62503	30.01	851.271
6	62722	30.11	854.048
6	62938	30.21	856.826
6	63154	30.31	859.604
6	63619	30.41	862.382
6	63826	30.51	865.16
6	64039	30.61	867.937
6	64255	30.71	870.715
6	64468	30.81	873.493
6	64678	30.91	876.271
6	64896	31.01	879.048
6	65118	31.11	881.826
6	65334	31.21	884.604
6	65547	31.31	887.382
6	65766	31.41	890.16
6	65985	31.51	892.937
6	66201	31.61	895.715
6	66411	31.71	898.493
6	66630	31.81	901.271
6	66849	31.91	904.048
6	67070	32.01	906.826
6	67280	32.11	909.604
6	67493	32.21	912.382
6	67709	32.31	915.16
6	67919	32.41	917.937
6	68132	32.51	920.715
6	68339	32.61	923.493
6	68552	32.71	926.271
6	68771	32.81	929.048
6	68978	32.91	931.826
6	69199	33.01	934.604
6	69418	33.11	937.382
6	69625	33.21	940.16
6	69847	33.31	942.937
6	70063	33.41	945.715
6	70276	33.51	948.493
6	70486	33.61	951.271
6	70696	33.71	954.048
6	70915	33.81	956.826
6	71131	33.91	959.604
6	71349	34.01	962.382
6	71550	34.11	965.16
6	71763	34.21	967.937
6	71985	34.31	970.715
6	72195	34.41	973.493
6	72411	34.51	976.271
6	72627	34.61	979.048
6	72843	34.71	981.826
6	73044	34.81	984.604
6	73263	34.91	987.382
6	73478	35.01	990.16
6	73688	35.11	992.937
6	73904	35.21	995.715
6	74111	35.31	998.493
6	74327	35.41	1001.27
6	74543	35.51	1004.05
6	74762	35.61	1006.83
6	74978	35.71	1009.6
6	75185	35.81	1012.38
6	75395	35.91	1015.16
6	75622	36.01	1017.94
6	75838	36.11	1020.72
6	76054	36.21	1023.49
6	76267	36.31	1026.27
6	76483	36.41	1029.05
6	76684	36.51	1031.83
6	76900	36.61	1034.6
6	77110	36.71	1037.38
6	77317	36.81	1040.16
6	77524	36.91	1042.94
6	77751	37.01	1045.72
6	77961	37.11	1048.49
6	78177	37.21	1051.27
6	78387	37.31	1054.05
6	78603	37.41	1056.83
6	78804	37.51	1059.6
6	79014	37.61	1062.38
6	79233	37.71	1065.16
6	79443	37.81	1067.94
6	79665	37.91	1070.72
6	79874	38.01	1073.49
6	80090	38.11	1076.27
6	80300	38.21	1079.05
6	80522	38.31	1081.83
6	80735	38.41	1084.6
6	80957	38.51	1087.38
6	81161	38.61	1090.16
6	81380	38.71	1092.94
6	81596	38.81	1095.72
6	81800	38.91	1098.49
6	82012	39.01	1101.27
6	82231	39.11	1104.05
6	82444	39.21	1106.83
6	82663	39.31	1109.6
6	82867	39.41	1112.38
6	83083	39.51	1115.16
6	83296	39.61	1117.94
6	83506	39.71	1120.72
6	83722	39.81	1123.49
6	83923	39.91	1126.27
6	84150	40.01	1129.05
6	84360	40.11	1131.83
6	84576	40.21	1134.6
6	84786	40.31	1137.38
6	84987	40.41	1140.16
6	85200	40.51	1142.94
6	85413	40.61	1145.72
6	85623	40.71	1148.49
6	85839	40.81	1151.27
6	86049	40.91	1154.05
6	86267	41.01	1156.83
6	86483	41.11	1159.6
6	86687	41.21	1162.38
6	86909	41.31	1165.16
6	87119	41.41	1167.94
6	87338	41.51	1170.72
6	87542	41.61	1173.49
6	87755	41.71	1176.27
6	87968	41.81	1179.05
6	88181	41.91	1181.83
6	88399	42.01	1184.6
6	88618	42.11	1187.38
6	88834	42.21	1190.16
6	89047	42.31	1192.94
6	89260	42.41	1195.72
6	89473	42.51	1198.49
6	89692	42.61	1201.27
6	89902	42.71	1204.05
6	90115	42.81	1206.83
6	90337	42.91	1209.6
6	90552	43.01	1212.38
6	90771	43.11	1215.16
6	90993	43.21	1217.94
6	91206	43.31	1220.72
6	91419	43.41	1223.49
6	91629	43.51	1226.27
6	91845	43.61	1229.05
6	92055	43.71	1231.83
6	92268	43.81	1234.6
6	92484	43.91	1237.38
6	92696	44.01	1240.16
6	92906	44.11	1242.94
6	93110	44.21	1245.72
6	93320	44.31	1248.49
6	93533	44.41	1251.27
6	93749	44.51	1254.05
6	93968	44.61	1256.83
6	94178	44.71	1259.6
6	94394	44.81	1262.38
6	94607	44.91	1265.16
6	95218	45.01	1267.94
6	95437	45.11	1270.72
6	95659	45.21	1273.49
6	95869	45.31	1276.27
6	96088	45.41	1279.05
6	96298	45.51	1281.83
6	96508	45.61	1284.6
6	96718	45.71	1287.38
6	96925	45.81	1290.16
6	97138	45.91	1292.94
6	97350	46.01	1295.72
6	97548	46.11	1298.49
6	97761	46.21	1301.27
6	97977	46.31	1304.05
6	98187	46.41	1306.83
6	98400	46.51	1309.6
6	98613	46.61	1312.38
6	98820	46.71	1315.16
6	99033	46.81	1317.94
6	99243	46.91	1320.72
6	99452	47.01	1323.49
6	99665	47.11	1326.27
6	99875	47.21	1329.05
6	100088	47.31	1331.83
6	100286	47.41	1334.6
6	100496	47.51	1337.38
6	100709	47.61	1340.16
6	100925	47.71	1342.94
6	101141	47.81	1345.72
6	101366	47.91	1348.49
6	101578	48.01	1351.27
6	101788	48.11	1354.05
6	102010	48.21	1356.83
6	102226	48.31	1359.6
6	102436	48.41	1362.38
6	102640	48.51	1365.16
6	102853	48.61	1367.94
6	103069	48.71	1370.72
6	103288	48.81	1373.49
6	103507	48.91	1376.27
6	103722	49.01	1379.05
6	103929	49.11	1381.83
6	104142	49.21	1384.6
6	104355	49.31	1387.38
6	104565	49.41	1390.16
6	104781	49.51	1392.94
6	104988	49.61	1395.72
6	105204	49.71	1398.49
6	105420	49.81	1401.27
6	105633	49.91	1404.05
6	105848	50.01	1406.83
6	106070	50.11	1409.6
6	106283	50.21	1412.38
6	106499	50.31	1415.16
6	106709	50.41	1417.94
6	106931	50.51	1420.72
6	107138	50.61	1423.49
6	107360	50.71	1426.27
6	107570	50.81	1429.05
6	107783	50.91	1431.83
6	108007	51.01	1434.6
6	108223	51.11	1437.38
6	108436	51.21	1440.16
6	108646	51.31	1442.94
6	108859	51.41	1445.72
6	109075	51.51	1448.49
6	109285	51.61	1451.27
6	109504	51.71	1454.05
6	109708	51.81	1456.83
6	109924	51.91	1459.6
6	110145	52.01	1462.38
6	110358	52.11	1465.16
6	110565	52.21	1467.94
6	110784	52.31	1470.72
6	110997	52.41	1473.49
6	111210	52.51	1476.27
6	111426	52.61	1479.05
6	111642	52.71	1481.83
6	111861	52.81	1484.6
6	112074	52.91	1487.38
6	112298	53.01	1490.16
6	112508	53.11	1492.94
6	112718	53.21	1495.72
6	112928	53.31	1498.49
6	113147	53.41	1501.27
6	113357	53.51	1504.05
[...]
55	39707	19.418465940962	4
55	39920	19.518471274943	4
55	40559	19.818474279524	4
55	40990	20.0184719514	4
55	41203	20.118477287971	4
55	41413	20.218469624957	4
55	41620	20.318474962355	4
55	41830	20.418467300159	4
55	42043	20.518472638368	4
55	42466	20.718470315973	4
55	42670	20.818475655363	4
55	42880	20.918467995136	4
55	43104	21.01847333529	4
55	43320	21.11846567582	4
55	43533	21.218471016722	4
55	43746	21.31847635799	4
55	44163	21.518474041611	4
55	44379	21.618466383954	4
55	44589	21.718471726647	4
55	44802	21.818477069685	4
55	45018	21.918469413063	4
55	45245	22.018474756779	4
55	45455	22.118467100825	4
55	45881	22.318477789902	4
55	46100	22.418470134923	4
55	46514	22.618467825907	4
55	47159	22.91847086468	4
55	47377	23.018476211534	4
55	47799	23.118472905683	4
55	48012	23.218478253116	4
55	48231	23.318470600838	4
55	48450	23.418475948848	4
55	48663	23.518468297151	4
55	48876	23.618473645754	4
55	49080	23.718465994664	4
55	49718	24.018469043327	4
55	50351	24.318472095108	4
55	50570	24.418477446447	4
55	50774	24.518469798176	4
55	50990	24.618475150308	4
55	51197	24.718467502852	4
55	51398	24.818472855821	4
55	51614	24.918478209222	4
55	51832	25.018470563069	4
55	52045	25.118475917371	4
55	52261	25.218468272135	4
55	52468	25.31847362737	4
55	52672	25.418465983088	4
55	53092	25.618476695994	4
55	53308	25.718469053199	4
55	53524	25.818474410914	4
55	53734	25.918466769147	4
55	53949	26.018472127902	4
55	54162	26.118477487187	4
55	54378	26.218469847005	4
55	54597	26.318475207362	4
55	55017	26.518472929713	4
55	55236	26.618478291714	4
55	55449	26.718470654271	4
55	55662	26.818476017387	4
55	55872	26.918468381063	4
55	56090	27.018473745302	4
55	56306	27.118466110109	4
55	56519	27.218471475483	4
55	56723	27.318476841427	4
55	56942	27.418469207943	4
55	57158	27.518474575032	4
55	57380	27.618466942695	4
55	57596	27.718472310933	4
55	57806	27.818477679745	4
55	58022	27.918470049133	4
55	58465	28.118467789637	4
55	58678	28.218473160749	4
55	59311	28.518476277539	4
55	59524	28.61846865095	4
55	59740	28.718474024933	4
55	59953	28.818466399486	4
55	60169	28.918471774607	4
55	60384	29.018477150295	4
55	60600	29.118469526549	4
55	60804	29.218474903369	4
55	61026	29.318467280752	4
55	61236	29.418472658694	4
55	61455	29.518478037196	4
55	61677	29.618470416254	4
55	61887	29.71847579587	4
55	62103	29.818468176036	4
55	62322	29.918473556752	4
55	62531	30.018465938017	4
55	62750	30.118471319826	4
55	62966	30.218476702177	4
55	63182	30.318469085071	4
55	63647	30.418467852115	4
55	63854	30.518473238417	4
55	64067	30.618465625241	4
55	64283	30.718471012567	4
55	64706	30.918468788565	4
55	64924	31.018474177132	4
55	65146	31.118466565992	4
55	65362	31.218471955077	4
55	65575	31.318477344312	4
55	65794	31.418469733619	4
55	66013	31.51847512292	4
55	66229	31.618467512135	4
55	66439	31.718472901184	4
55	66658	31.818478289991	4
55	66877	31.918470678473	4
55	67521	32.218473841224	4
55	67947	32.418471613412	4
55	68160	32.518476998403	4
55	68580	32.718474765861	4
55	69006	32.91847252955	4
55	69227	33.018477909845	4
55	69446	33.118470289036	4
55	69653	33.218475667077	4
55	69875	33.318468043923	4
55	70091	33.41847341953	4
55	70304	33.518465793858	4
55	70724	33.718476538527	4
55	70943	33.818468908801	4
55	71159	33.918474277661	4
55	71377	34.018466645075	4
55	71578	34.118472011019	4
55	71791	34.218477375468	4
55	72013	34.318469738399	4
55	72223	34.418475099791	4
55	72439	34.518467459627	4
55	72655	34.61847281789	4
55	72871	34.718478174563	4
55	73072	34.818470529631	4
55	73291	34.918475883085	4
55	73506	35.018468234912	4
55	73716	35.118473585105	4
55	73932	35.218465933654	4
55	74139	35.318471280552	4
55	74355	35.418476625796	4
55	74571	35.51846896938	4
55	74790	35.618474311302	4
55	75423	35.918477327069	4
55	75650	36.018469662326	4
55	75866	36.118474995918	4
55	76082	36.218467327848	4
55	76511	36.418477986736	4
55	76712	36.518470313703	4
55	76928	36.618475639026	4
55	77345	36.818473284761	4
55	78205	37.218468556799	4
55	78415	37.318473870809	4
55	78631	37.418466183238	4
55	78832	37.518471494096	4
55	79042	37.618476803393	4
55	79471	37.818474417345	4
55	79693	37.918466722023	4
55	79902	38.018472025185	4
55	80118	38.118477326842	4
55	80328	38.218469627006	4
55	80763	38.418467222913	4
55	81189	38.618477813003	4
55	81408	38.718470105901	4
55	81624	38.818475397384	4
55	81828	38.918467687467	4
55	82040	39.018472976162	4
55	82259	39.118478263484	4
55	82472	39.218470549449	4
55	82895	39.418468117356	4
55	83111	39.518473399324	4
55	83534	39.718470959366	4
55	83951	39.918468514308	4
55	84178	40.018473789902	4
55	84388	40.118466064265	4
55	84814	40.318476609352	4
55	85015	40.418468880104	4
55	85441	40.618466418097	4
55	85651	40.718471685363	4
55	86295	41.018474480422	4
55	86715	41.21847200498	4
55	86937	41.318477265655	4
55	87147	41.41846952528	4
55	87783	41.718472297989	4
55	87996	41.818477553549	4
55	88209	41.918469808124	4
55	88427	42.01847506173	4
55	88646	42.118467314379	4
55	88862	42.218472566086	4
55	89075	42.318477816862	4
55	89288	42.418470066721	4
55	89501	42.518475315675	4
55	89720	42.618467563738	4
55	89930	42.718472810919	4
55	90143	42.818478057234	4
55	90580	43.018475547312	4
55	90799	43.1184677911	4
55	91021	43.21847303407	4
55	91234	43.318478276232	4
55	91447	43.418470517599	4
55	91657	43.518475758183	4
55	92296	43.818478475348	4
55	92512	43.918470712912	4
55	92724	44.018475949751	4
55	92934	44.118468185871	4
55	93138	44.218473421287	4
55	93348	44.318465656008	4
55	93561	44.418470890044	4
55	93996	44.618468356105	4
55	94206	44.718473588148	4
55	94422	44.818465819548	4
55	94635	44.918471050313	4
55	95174	44.991759722798	4
55	95395	45.091751952321	4
55	95614	45.191757181236	4
55	95827	45.291749409552	4
55	96043	45.391754637276	4
55	96253	45.491759864421	4
55	96676	45.69175731701	4
55	97093	45.891754767424	4
55	97512	46.091752215775	4
55	97716	46.191757439215	4
55	97932	46.291749662186	4
55	98148	46.391754884705	4
55	98355	46.49176010679	4
55	98571	46.591752328456	4
55	98778	46.691757549722	4
55	98991	46.791749770605	4
55	99204	46.891754991122	4
55	99620	47.091752431131	4
55	100043	47.291749869897	4
55	100454	47.491760307566	4
55	100886	47.691757744293	4
55	101099	47.791749962352	4
55	101321	47.891755180233	4
55	101534	47.991760397956	4
55	101965	48.191757833	4
55	102187	48.291750050363	4
55	102391	48.391755267645	4
55	102598	48.491760484865	4
55	103024	48.691757919196	4
55	103246	48.791750136344	4
55	103465	48.891755353505	4
55	103675	48.991760570697	4
55	103887	49.091752787936	4
55	104097	49.191758005241	4
55	104310	49.291750222626	4
55	104523	49.391755440108	4
55	104949	49.591752875425	4
55	105375	49.791750311304	4
55	106025	50.091752966404	4
55	106241	50.191758185158	4
55	106454	50.291750404123	4
55	106667	50.391755623309	4
55	106886	50.491760842724	4
55	107099	50.591753062377	4
55	107318	50.691758282275	4
55	107528	50.791750502426	4
55	107738	50.891755722835	4
55	107957	50.991760943508	4
55	108181	51.091753164451	4
55	108607	51.291750607167	4
55	109243	51.591753273373	4
55	109459	51.691758496023	4
55	109666	51.791750718969	4
55	109885	51.891755942211	4
55	110095	51.991761165753	4
55	110316	52.091753389596	4
55	110742	52.291750838187	4
55	110955	52.391756062937	4
55	111168	52.49176128799	4
55	111384	52.591753513348	4
55	111816	52.791750964973	4
55	112032	52.891756191239	4
55	112251	52.991761417807	4
55	112676	53.191758871846	4
55	113102	53.39175632708	4
55	113744	53.691759012149	4
55	113960	53.791751241091	4
55	114179	53.891756470322	4
55	114395	53.991748699841	4
55	114619	54.091753929645	4
55	115258	54.391756620751	4
55	115681	54.591754082876	4
55	116107	54.791751546088	4
55	116323	54.891756778097	4
55	116545	54.991749010371	4
55	116763	55.091754242906	4
55	116970	55.1917594757	4
55	117189	55.291751708751	4
55	117402	55.391756942058	4
55	117618	55.491749175617	4
55	118038	55.691759643481	4
55	118260	55.79175187778	4
55	118476	55.891757112321	4
55	118683	55.991749347101	4
55	118907	56.091754582117	4
55	119327	56.291752052846	4
55	119525	56.391757288554	4
55	119738	56.491749524488	4
55	120158	56.691759997024	4
55	120380	56.79175223362	4
55	120593	56.89175747043	4
55	120932	56.99175281427	4
55	121162	57.091758051502	4
55	121372	57.191750288942	4
55	121804	57.391760764429	4
55	122011	57.491753002472	4
55	122221	57.591758240711	4
55	122431	57.691750479143	4
55	122869	57.891760956577	4
55	123082	57.991753195574	4
55	123294	58.091758434754	4
55	123510	58.191750674117	4
55	123723	58.291755913659	4
55	123936	58.39176115338	4
55	124152	58.491753393277	4
55	124365	58.591758633349	4
55	124575	58.691750873595	4
55	124800	58.791756114012	4
55	125013	58.8917613546	4
55	125447	59.09175883628	4
55	125669	59.191751077373	4
55	125894	59.291756318631	4
55	126314	59.491753801641	4
55	126518	59.591759043392	4
55	126737	59.691751285305	4
55	126950	59.791756527383	4
55	127163	59.891748769621	4
55	127370	59.991754012021	4
55	127591	60.091759254581	4
55	127798	60.191751497302	4
55	128020	60.291756740183	4
55	128236	60.391748983223	4
55	128449	60.491754226425	4
55	128656	60.591759469786	4
55	129073	60.791756956985	4
55	129286	60.891749200823	4
55	129496	60.991754444821	4
55	129714	61.091759688978	4
55	129930	61.191751933293	4
55	130143	61.291757177769	4
55	130356	61.391749422403	4
55	130575	61.491754667197	4
55	130992	61.691752157263	4
55	131415	61.891749647969	4
55	132062	62.191752385229	4
55	132284	62.291757631303	4
55	132497	62.391749877539	4
55	132905	62.591760370495	4
55	133334	62.7917578641	4
55	133553	62.891750111145	4
55	133769	62.991755358353	4
55	134203	63.191752853258	4
55	134410	63.291758100957	4
55	134620	63.391750348819	4
55	134827	63.491755596847	4
55	135049	63.591760845038	4
55	135481	63.791758341917	4
55	135901	63.99175583946	4
55	136326	64.191753337669	4
55	136542	64.291758587024	4
55	136758	64.391750836546	4
55	136977	64.491756086237	4
55	137400	64.691753586122	4
55	137826	64.891751086684	4
55	138042	64.991756337218	4
55	138266	65.091748587923	4
55	138698	65.291759089845	4
55	138914	65.391751341062	4
55	139133	65.491756592451	4
55	139346	65.591748844011	4
55	139565	65.691754095744	4
55	139784	65.79175934765	4
55	139994	65.891751599728	4
55	140416	66.091749104405	4
55	140629	66.191754357004	4
55	140851	66.291759609778	4
55	141073	66.391751862726	4
55	141846	66.482953744602	4
55	142050	66.58295899702	4
55	142266	66.682951249649	4
55	142470	66.782956502523	4
55	142683	66.882948755686	4
55	142896	66.982954009192	4
55	143120	67.082959263101	4
55	143339	67.182951517478	4
55	143756	67.382949027921	4
55	144185	67.582959541119	4
55	144383	67.68295179895	4
55	144806	67.882949317499	4
55	145450	68.182952103825	4
55	145672	68.282957368554	4
55	145879	68.382949634744	4
55	146092	68.482954902486	4
55	146308	68.58296017187	4
55	146527	68.682952442989	4
55	146746	68.782957715938	4
55	146947	68.882949990806	4
55	147166	68.982955267689	4
55	147390	69.08296054668	4
55	147603	69.182952827874	4
55	147822	69.282958111364	4
55	148029	69.382950397247	4
55	148458	69.582947976564	4
55	148671	69.682953270191	4
55	148884	69.782958566588	4
55	149310	69.982956168083	4
55	149537	70.08294847337	4
55	149750	70.182953781813	4
55	149969	70.282959093507	4
55	150188	70.382951408548	4
55	150404	70.482956727034	4
55	150617	70.58294904906	4
55	150827	70.682954374723	4
55	151040	70.782959704117	4
55	151250	70.882952037343	4
55	151460	70.982957374496	4
55	151669	71.082949715672	4
55	151882	71.18295506097	4
55	152098	71.282960410484	4
55	152311	71.382952764312	4
55	152515	71.482958122554	4
55	152728	71.582950485307	4
55	152941	71.682955852664	4
55	153160	71.782948224721	4
55	153589	71.982958983295	4
55	153801	72.082951369981	4
55	154017	72.182956761701	4
55	154233	72.282949158525	4
55	154449	72.382954560516	4
55	154878	72.58295238022	4
55	155082	72.682957798027	4
55	155298	72.782950221192	4
55	155517	72.882955649747	4
55	155730	72.982948083721	4
55	155945	73.082953523136	4
55	156158	73.18295896801	4
55	156380	73.28295141836	4
55	156593	73.382956874198	4
55	156797	73.482949335532	4
55	157232	73.682960274707	4
55	157448	73.782952752554	4
55	157877	73.982950724763	4
55	158104	74.082956219123	4
55	158746	74.382959735181	4
55	159163	74.58295777332	4
55	159376	74.682950300604	4
55	159802	74.882948371574	4
55	160021	74.98295391525	4
55	160251	75.082959464379	4
55	160467	75.182952018958	4
55	160686	75.282957578982	4
55	160899	75.382950144448	4
55	161115	75.482955715353	4
55	161325	75.582948291692	4
55	161547	75.682953873464	4
55	161973	75.882952053295	4
55	162192	75.982957651347	4
55	162413	76.082950254824	4
55	162635	76.182955863723	4
55	162851	76.282948478044	4
55	163280	76.482959722945	4
55	163493	76.582952353524	4
55	163697	76.682957989521	4
55	163904	76.782950630937	4
55	164114	76.88295627777	4
55	164324	76.982948930021	4
55	164536	77.08295458769	4
55	164959	77.28295291928	4
55	165178	77.382958593203	4
55	165388	77.482951272545	4
55	165595	77.582956957306	4
55	165808	77.682949647487	4
55	166009	77.782955343088	4
55	166219	77.88294804411	4
55	166653	78.082959462416	4
55	166863	78.182952179703	4
55	167073	78.282957902412	4
55	167286	78.382950630544	4
55	167715	78.582949103082	4
55	167931	78.682954847488	4
55	168147	78.782947597319	4
55	168363	78.882953352576	4
55	168785	79.082951879371	4
55	169001	79.182957650911	4
55	169217	79.28295042788	4
55	169433	79.382956210277	4
55	169865	79.582954791362	4
55	170072	79.682947590051	4
55	170279	79.782953394172	4
55	170498	79.882959203726	4
55	170711	79.982952018712	4
55	170929	80.082957839132	4
55	171148	80.182950664987	4
55	171364	80.282956496277	4
55	171583	80.382949333003	4
55	172012	80.582948022762	4
55	172222	80.682953875799	4
55	172438	80.782959734275	4
55	172648	80.882952598191	4
55	173073	81.08295134234	4
55	173289	81.182957222579	4
55	173502	81.282950108258	4
55	173712	81.382955999381	4
55	173925	81.482948895948	4
55	174138	81.582954797959	4
55	174564	81.782953618319	4
55	174771	81.882959536668	4
55	174984	81.982952460464	4
55	175211	82.08295838971	4
55	175421	82.182951324405	4
55	175631	82.28295726455	4
55	175838	82.382950210147	4
55	176060	82.482956161194	4
55	176276	82.582949117695	4
55	176696	82.782948047056	4
55	176909	82.88295401992	4
55	177340	83.082952982014	4
55	177553	83.182958971247	4
55	177760	83.282951965938	4
55	178180	83.482950971698	4
55	178390	83.582956982768	4
55	178603	83.6829499993	4
55	179230	83.982955081673	4
55	179448	84.08294812006	4
55	179667	84.182954163911	4
55	179883	84.282960213229	4
55	180093	84.382953268014	4
55	180309	84.482959328266	4
55	180525	84.582952393987	4
55	180735	84.682958465176	4
55	180951	84.782951541838	4
55	181161	84.882957623971	4
55	181380	84.982950711575	4
55	181592	85.082956804651	4
55	181805	85.182949903201	4
55	182021	85.282956007225	4
55	182240	85.382949116726	4
55	182672	85.582948352152	4
55	182891	85.682954478082	4
55	183101	85.78294760949	4
55	183533	85.982959888743	4
55	183748	86.082953036589	4
55	183952	86.182959189916	4
55	184162	86.282952348724	4
55	184375	86.382958513016	4
55	184588	86.482951682791	4
55	184810	86.58295785805	4
55	185245	86.782957225023	4
55	185662	86.982956613942	4
55	185880	87.082949816632	4
55	186096	87.18295602481	4
55	186312	87.282949238477	4
55	186729	87.482948682282	4
55	186942	87.582954912421	4
55	187362	87.782954389174	4
55	187566	87.882947635791	4
55	187785	87.982953887901	4
55	188003	88.082960145506	4
55	188615	88.382952951291	4
55	188840	88.48295923088	4
55	189053	88.582952515967	4
55	189266	88.682958806551	4
55	189476	88.782952102636	4
55	189686	88.882958404221	4
55	189893	88.982951711305	4
55	190534	89.282957665567	4
55	190741	89.382950994659	4
55	190963	89.482957329256	4
55	191173	89.582950669355	4
55	191602	89.782950366067	4
55	191821	89.882956722682	4
70	2000	2	0
70	4147	3	0
70	6261	4	0
70	8396	5	0
70	10519	6	0
70	12675	7	0
70	14813	8	0
70	16948	9	0
70	19074	10	0
70	21209	11	0
70	23847	12	0
70	25976	13	0
70	28123	14	0
70	30246	15	0
70	32387	16	0
70	34525	17	0
70	36675	18	0
70	38783	19	0
70	40918	20	0
70	43032	21	0
70	45173	22	0
70	47305	23	0
70	49646	24	0
70	51760	25	0
70	53880	26	0
70	56021	27	0
70	58180	28	0
70	60312	29	0
70	62465	30	0
70	64855	31	0
70	67026	32	0
70	69155	33	0
70	71305	34	0
70	73440	35	0
70	75578	36	0
70	77707	37	0
70	79836	38	0
70	81968	39	0
70	84109	40	0
70	86223	41	0
70	88358	42	0
70	90508	43	0
70	92655	44	0
70	95180	45	0
70	97309	46	0
70	99408	47	0
70	101540	48	0
70	103681	49	0
70	105807	50	0
70	107963	51	0
70	110101	52	0
70	112257	53	0
70	114401	54	0
70	116551	55	0
70	118689	56	0
70	120938	57	0
70	123088	58	0
70	125226	59	0
70	127376	60	0
70	129502	61	0
70	131637	62	0
70	133775	63	0
70	135910	64	0
70	138054	65	0
70	140207	66	0
70	142945	67	0
70	145062	68	0
70	147215	69	0
70	149359	70	0
70	151506	71	0
70	153635	72	0
70	155779	73	0
70	157929	74	0
70	160076	75	0
70	162247	76	0
70	164376	77	0
70	166478	78	0
70	168628	79	0
70	170763	80	0
70	172901	81	0
70	175036	82	0
70	177174	83	0
70	179282	84	0
70	181435	85	0
70	183582	86	0
70	185714	87	0
70	187837	88	0
70	189942	89	0
70	192071	90	0
69	2000	2	0.013736
69	4147	3	0.01561
69	6261	4	0.01561
69	8396	5	0.01561
69	10519	6	0.01561
69	12675	7	0.01561
69	14813	8	0.01561
69	16948	9	0.01561
69	19074	10	0.01561
69	21209	11	0.01561
69	23847	12	0.016554
69	25976	13	0.01561
69	28123	14	0.01561
69	30246	15	0.01561
69	32387	16	0.01561
69	34525	17	0.01561
69	36675	18	0.01561
69	38783	19	0.01561
69	40918	20	0.01561
69	43032	21	0.01561
69	45173	22	0.01561
69	47305	23	0.01561
69	49646	24	0.015994
69	51760	25	0.01561
69	53880	26	0.01561
69	56021	27	0.01561
69	58180	28	0.01561
69	60312	29	0.01561
69	62465	30	0.01561
69	64855	31	0.016058
69	67026	32	0.01561
69	69155	33	0.01561
69	71305	34	0.01561
69	73440	35	0.01561
69	75578	36	0.01561
69	77707	37	0.01561
69	79836	38	0.01561
69	81968	39	0.01561
69	84109	40	0.01561
69	86223	41	0.01561
69	88358	42	0.01561
69	90508	43	0.01561
69	92655	44	0.01561
69	95180	45	0.016394
69	97309	46	0.01561
69	99408	47	0.01561
69	101540	48	0.01561
69	103681	49	0.01561
69	105807	50	0.01561
69	107963	51	0.01561
69	110101	52	0.01561
69	112257	53	0.01561
69	114401	54	0.01561
69	116551	55	0.01561
69	118689	56	0.01561
69	120938	57	0.015834
69	123088	58	0.01561
69	125226	59	0.01561
69	127376	60	0.01561
69	129502	61	0.01561
69	131637	62	0.01561
69	133775	63	0.01561
69	135910	64	0.01561
69	138054	65	0.01561
69	140207	66	0.01561
69	142945	67	0.016682
69	145062	68	0.01561
69	147215	69	0.01561
69	149359	70	0.01561
69	151506	71	0.01561
69	153635	72	0.01561
69	155779	73	0.01561
69	157929	74	0.01561
69	160076	75	0.01561
69	162247	76	0.01561
69	164376	77	0.01561
69	166478	78	0.01561
69	168628	79	0.01561
69	170763	80	0.01561
69	172901	81	0.01561
69	175036	82	0.01561
69	177174	83	0.01561
69	179282	84	0.01561
69	181435	85	0.01561
69	183582	86	0.01561
69	185714	87	0.01561
69	187837	88	0.01561
69	189942	89	0.01561
69	192071	90	0.01561
68	2000	2	4
68	4147	3	4
68	6261	4	4
68	8396	5	4
68	10519	6	4
68	12675	7	4
68	14813	8	4
68	16948	9	4
68	19074	10	4
68	21209	11	4
68	23847	12	4
68	25976	13	4
68	28123	14	4
68	30246	15	4
68	32387	16	4
68	34525	17	4
68	36675	18	4
68	38783	19	4
68	40918	20	4
68	43032	21	4
68	45173	22	4
68	47305	23	4
68	49646	24	4
68	51760	25	4
68	53880	26	4
68	56021	27	4
68	58180	28	4
68	60312	29	4
68	62465	30	4
68	64855	31	4
68	67026	32	4
68	69155	33	4
68	71305	34	4
68	73440	35	4
68	75578	36	4
68	77707	37	4
68	79836	38	4
68	81968	39	4
68	84109	40	4
68	86223	41	4
68	88358	42	4
68	90508	43	4
68	92655	44	4
68	95180	45	4
68	97309	46	4
68	99408	47	4
68	101540	48	4
68	103681	49	4
68	105807	50	4
68	107963	51	4
68	110101	52	4
68	112257	53	4
68	114401	54	4
68	116551	55	4
68	118689	56	4
68	120938	57	4
68	123088	58	4
68	125226	59	4
68	127376	60	4
68	129502	61	4
68	131637	62	4
68	133775	63	4
68	135910	64	4
68	138054	65	4
68	140207	66	4
68	142945	67	4
68	145062	68	4
68	147215	69	4
68	149359	70	4
68	151506	71	4
68	153635	72	4
68	155779	73	4
68	157929	74	4
68	160076	75	4
68	162247	76	4
68	164376	77	4
68	166478	78	4
68	168628	79	4
68	170763	80	4
68	172901	81	4
68	175036	82	4
68	177174	83	4
68	179282	84	4
68	181435	85	4
68	183582	86	4
68	185714	87	4
68	187837	88	4
68	189942	89	4
68	192071	90	4

